TRIM21-x0606_B_302_1_TRIM21-x0031+B+401+1__LIG
     RDKit          3D

 14 15  0  0  0  0  0  0  0  0999 V2000
  -46.0760    0.4890  -25.6120 C   0  0  0  0  0  0  0  0  0  0  0  0
  -45.3080    0.2230  -24.3460 C   0  0  2  0  0  0  0  0  0  0  0  0
  -43.9340    0.6900  -24.4010 N   0  0  0  0  0  0  0  0  0  0  0  0
  -43.2940    1.1270  -23.3140 C   0  0  0  0  0  0  0  0  0  0  0  0
  -43.8260    1.1430  -22.2080 O   0  0  0  0  0  0  0  0  0  0  0  0
  -41.9260    1.6360  -23.5300 C   0  0  0  0  0  0  0  0  0  0  0  0
  -40.9530    1.5080  -22.3890 C   0  0  0  0  0  0  0  0  0  0  0  0
  -41.4830    2.8370  -22.7350 C   0  0  0  0  0  0  0  0  0  0  0  0
  -45.5670   -1.0710  -23.6310 C   0  0  0  0  0  0  0  0  0  0  0  0
  -46.8660   -1.4620  -23.3270 C   0  0  0  0  0  0  0  0  0  0  0  0
  -47.1030   -2.6390  -22.6880 C   0  0  0  0  0  0  0  0  0  0  0  0
  -46.0300   -3.4240  -22.3600 C   0  0  0  0  0  0  0  0  0  0  0  0
  -44.7620   -3.1000  -22.6390 N   0  0  0  0  0  0  0  0  0  0  0  0
  -44.5460   -1.9210  -23.2520 C   0  0  0  0  0  0  0  0  0  0  0  0
  2  1  1  6
  2  3  1  0
  3  4  1  0
  4  5  2  0
  4  6  1  0
  6  7  1  0
  7  8  1  0
  2  9  1  0
  9 10  2  0
 10 11  1  0
 11 12  2  0
 12 13  1  0
 13 14  2  0
  6  8  1  0
  9 14  1  0
M  END
$$$$
