TRIM21-x0666_B_302_1_TRIM21-x0043+B+302+1__LIG
     RDKit          3D

 16 17  0  0  0  0  0  0  0  0999 V2000
  -37.9240  -11.0300  -19.9750 C   0  0  0  0  0  0  0  0  0  0  0  0
  -38.2160  -12.1410  -18.9690 C   0  0  0  0  0  0  0  0  0  0  0  0
  -37.6050  -11.7800  -17.6350 C   0  0  0  0  0  0  0  0  0  0  0  0
  -37.8680  -13.4910  -19.4970 N   0  0  0  0  0  0  0  0  0  0  0  0
  -38.0720  -14.5900  -18.5490 C   0  0  0  0  0  0  0  0  0  0  0  0
  -37.4760  -15.8810  -19.0760 C   0  0  0  0  0  0  0  0  0  0  0  0
  -38.0290  -16.2520  -20.3840 N   0  0  0  0  0  0  0  0  0  0  0  0
  -38.0040  -15.1410  -21.3400 C   0  0  0  0  0  0  0  0  0  0  0  0
  -38.5530  -13.8590  -20.7400 C   0  0  0  0  0  0  0  0  0  0  0  0
  -38.3560  -17.5360  -20.7150 C   0  0  0  0  0  0  0  0  0  0  0  0
  -38.3810  -17.9190  -21.8860 O   0  0  0  0  0  0  0  0  0  0  0  0
  -38.6530  -18.5400  -19.7110 C   0  0  0  0  0  0  0  0  0  0  0  0
  -39.4060  -18.4430  -18.5390 C   0  0  0  0  0  0  0  0  0  0  0  0
  -39.5870  -19.7190  -17.9320 C   0  0  0  0  0  0  0  0  0  0  0  0
  -38.9380  -20.7100  -18.5720 C   0  0  0  0  0  0  0  0  0  0  0  0
  -38.1370  -20.1710  -19.9720 S   0  0  0  0  0  0  0  0  0  0  0  0
  1  2  1  0
  2  3  1  0
  2  4  1  0
  4  5  1  0
  5  6  1  0
  6  7  1  0
  7  8  1  0
  8  9  1  0
  7 10  1  0
 10 11  2  0
 10 12  1  0
 12 13  2  0
 13 14  1  0
 14 15  2  0
 15 16  1  0
  4  9  1  0
 12 16  1  0
M  END
$$$$
