TRIM21-x0470_B_302_1_TRIM21-x0031+B+401+1__LIG
     RDKit          3D

 12 12  0  0  0  0  0  0  0  0999 V2000
  -44.5510   -0.8910  -23.6470 C   0  0  0  0  0  0  0  0  0  0  0  0
  -45.2460   -2.5640  -23.4660 S   0  0  0  0  0  0  0  0  0  0  0  0
  -46.3640   -2.6030  -22.5200 O   0  0  0  0  0  0  0  0  0  0  0  0
  -44.2540   -3.4730  -22.9050 O   0  0  0  0  0  0  0  0  0  0  0  0
  -45.7530   -3.0550  -25.0140 N   0  0  0  0  0  0  0  0  0  0  0  0
  -46.3680   -4.3570  -25.1620 C   0  0  0  0  0  0  0  0  0  0  0  0
  -46.6570   -4.6340  -26.6310 C   0  0  0  0  0  0  0  0  0  0  0  0
  -47.4750   -5.8650  -26.7000 C   0  0  0  0  0  0  0  0  0  0  0  0
  -47.8320   -6.1350  -28.1500 C   0  0  0  0  0  0  0  0  0  0  0  0
  -46.5950   -6.3420  -28.9360 N   0  0  0  0  0  0  0  0  0  0  0  0
  -45.5550   -5.3010  -28.7990 C   0  0  0  0  0  0  0  0  0  0  0  0
  -45.3810   -4.7700  -27.3820 C   0  0  0  0  0  0  0  0  0  0  0  0
  2  1  1  0
  3  2  2  0
  4  2  2  0
  5  2  1  0
  6  5  1  0
  7  6  1  0
  8  7  1  0
  9  8  1  0
 10  9  1  0
 11 10  1  0
 12 11  1  0
  7 12  1  0
M  END
$$$$
