m0145a
     RDKit          3D

 15 16  0  0  0  0  0  0  0  0999 V2000
  -42.9580   -7.3760  -28.7150 C   0  0  0  0  0  0  0  0  0  0  0  0
  -44.0000   -6.5610  -29.4650 C   0  0  0  0  0  0  0  0  0  0  0  0
  -44.9050   -5.7490  -28.5370 C   0  0  0  0  0  0  0  0  0  0  0  0
  -46.4600   -4.3640  -27.5300 C   0  0  0  0  0  0  0  0  0  0  0  0
  -46.7690   -3.5080  -25.3860 C   0  0  0  0  0  0  0  0  0  0  0  0
  -47.4120   -2.2940  -24.7980 C   0  0  1  0  0  0  0  0  0  0  0  0
  -48.3100   -2.6760  -23.6330 C   0  0  0  0  0  0  0  0  0  0  0  0
  -47.3360   -2.6280  -22.4740 C   0  0  0  0  0  0  0  0  0  0  0  0
  -46.3530   -1.5790  -22.8460 C   0  0  0  0  0  0  0  0  0  0  0  0
  -44.4650   -5.0080  -27.5780 N   0  0  0  0  0  0  0  0  0  0  0  0
  -45.2680   -3.8980  -27.5140 N   0  0  0  0  0  0  0  0  0  0  0  0
  -47.3060   -3.9940  -26.5250 N   0  0  0  0  0  0  0  0  0  0  0  0
  -45.7370   -3.9590  -24.9140 O   0  0  0  0  0  0  0  0  0  0  0  0
  -46.4360   -1.3850  -24.2660 O   0  0  0  0  0  0  0  0  0  0  0  0
  -46.6630   -5.6270  -28.6590 S   0  0  0  0  0  0  0  0  0  0  0  0
  2  1  1  0
  3  2  1  0
  6  5  1  1
  7  6  1  0
  8  7  1  0
  9  8  1  0
 10  3  2  0
 11 10  1  0
 11  4  2  0
 12  4  1  0
 12  5  1  0
 13  5  2  0
 14  9  1  0
 14  6  1  0
 15  3  1  0
 15  4  1  0
M  END
>  <id>  (1) 
1

>  <inchikey>  (1) 
KKBVPDRSYCAPEU-ZCFIWIBFSA-N

>  <alias>  (1) 
m0145a

>  <smiles>  (1) 
CCc1nnc(NC(=O)[C@H]2CCCO2)s1

>  <path>  (1) 
/opt/xchem-fragalysis-2/maxwin/BulkDock/TARGETS/TRIM21/aligned_files/m0145a/m0145a.pdb

>  <distance_score>  (1) 
None

>  <energy_score>  (1) 
None

>  <compound>  (1) 
KKBVPDRSYCAPEU-UHFFFAOYSA-N

>  <compound_id>  (1) 
1

>  <target>  (1) 
TRIM21

>  <tags>  (1) 
['Main status', 'GOOD count', 'hits', 'BAD count', '[Other] upload_1 2025-03-17', 'MEDIOCRE count', 'iter1_hits']

>  <inspirations>  (1) 
None

>  <subsites>  (1) 
None

>  <reference>  (1) 


>  <observation_longname>  (1) 
TRIM21-x0145_B_201_v1

>  <ConformerSites alias>  (1) 
1a - m0031/B/401

>  <CanonSites alias>  (1) 
1 - m0031/B/401/1

>  <CrystalformSites alias>  (1) 
F1c - m0611/B/301

>  <Quatassemblies alias>  (1) 
A1 - monomer

>  <Crystalforms alias>  (1) 
F1 - xtalform1

>  <ConformerSites upload name>  (1) 
1a - TRIM21-x0031/B/401

>  <CanonSites upload name>  (1) 
1 - TRIM21-x0031/B/401/1

>  <CrystalformSites upload name>  (1) 
F1c - TRIM21-x0611/B/301/1

>  <Quatassemblies upload name>  (1) 
A1 - monomer

>  <Crystalforms upload name>  (1) 
F1 - xtalform1

>  <ConformerSites short tag>  (1) 
1a - m0031/B/401

>  <CanonSites short tag>  (1) 
1 - m0031/B/401/1

>  <CrystalformSites short tag>  (1) 
F1c - m0611/B/301

>  <Quatassemblies short tag>  (1) 
A1 - monomer

>  <Crystalforms short tag>  (1) 
F1 - xtalform1

>  <Centroid res>  (1) 
TRIM21-x0031/B/39/B_v1

>  <Experiment code>  (1) 
TRIM21-x0145

>  <Pose>  (1) 
m0145a

>  <exports>  (1) 
/opt/xchem-fragalysis-2/maxwin/TRIM21_FFF/knitwork/iter1/iter1_hits.sdf

$$$$
m0031a
     RDKit          3D

 14 14  0  0  0  0  0  0  0  0999 V2000
  -44.3860   -1.0240  -24.1780 C   0  0  0  0  0  0  0  0  0  0  0  0
  -45.5700   -4.2310  -25.1060 C   0  0  0  0  0  0  0  0  0  0  0  0
  -46.1700   -4.4850  -26.4860 C   0  0  0  0  0  0  0  0  0  0  0  0
  -45.3330   -5.4930  -27.2440 C   0  0  0  0  0  0  0  0  0  0  0  0
  -44.1290   -5.1280  -27.8270 C   0  0  0  0  0  0  0  0  0  0  0  0
  -43.3360   -6.0480  -28.4970 C   0  0  0  0  0  0  0  0  0  0  0  0
  -43.7720   -7.3400  -28.5620 C   0  0  0  0  0  0  0  0  0  0  0  0
  -44.9470   -7.7580  -28.0080 C   0  0  0  0  0  0  0  0  0  0  0  0
  -45.7220   -6.8230  -27.3350 C   0  0  0  0  0  0  0  0  0  0  0  0
  -43.0020   -8.2500  -29.2140 F   0  0  0  0  0  0  0  0  0  0  0  0
  -46.1510   -3.0750  -24.3970 N   0  0  0  0  0  0  0  0  0  0  0  0
  -44.2880   -3.2400  -22.8100 O   0  0  0  0  0  0  0  0  0  0  0  0
  -46.1350   -1.6500  -22.3840 O   0  0  0  0  0  0  0  0  0  0  0  0
  -45.2420   -2.2840  -23.3120 S   0  0  1  0  0  0  0  0  0  0  0  0
  3  2  1  0
  4  3  1  0
  5  4  2  0
  6  5  1  0
  7  6  2  0
  8  7  1  0
  9  8  2  0
  9  4  1  0
 10  7  1  0
 11  2  1  0
 14 13  2  0
 14 12  2  0
 14 11  1  0
 14  1  1  6
M  END
>  <id>  (2) 
2

>  <inchikey>  (2) 
JZUQJFQXYYHUJT-UHFFFAOYSA-N

>  <alias>  (2) 
m0031a

>  <smiles>  (2) 
CS(=O)(=O)NCCc1ccc(F)cc1

>  <path>  (2) 
/opt/xchem-fragalysis-2/maxwin/BulkDock/TARGETS/TRIM21/aligned_files/m0031a/m0031a.pdb

>  <distance_score>  (2) 
None

>  <energy_score>  (2) 
None

>  <compound>  (2) 
JZUQJFQXYYHUJT-UHFFFAOYSA-N

>  <compound_id>  (2) 
2

>  <target>  (2) 
TRIM21

>  <tags>  (2) 
['Main status', 'GOOD count', 'hits', 'BAD count', '[Other] upload_1 2025-03-17', 'MEDIOCRE count', 'iter1_hits']

>  <inspirations>  (2) 
None

>  <subsites>  (2) 
None

>  <reference>  (2) 


>  <observation_longname>  (2) 
TRIM21-x0031_B_401_v1

>  <ConformerSites alias>  (2) 
1a - m0031/B/401

>  <CanonSites alias>  (2) 
1 - m0031/B/401/1

>  <CrystalformSites alias>  (2) 
F1c - m0611/B/301

>  <Quatassemblies alias>  (2) 
A1 - monomer

>  <Crystalforms alias>  (2) 
F1 - xtalform1

>  <ConformerSites upload name>  (2) 
1a - TRIM21-x0031/B/401

>  <CanonSites upload name>  (2) 
1 - TRIM21-x0031/B/401/1

>  <CrystalformSites upload name>  (2) 
F1c - TRIM21-x0611/B/301/1

>  <Quatassemblies upload name>  (2) 
A1 - monomer

>  <Crystalforms upload name>  (2) 
F1 - xtalform1

>  <ConformerSites short tag>  (2) 
1a - m0031/B/401

>  <CanonSites short tag>  (2) 
1 - m0031/B/401/1

>  <CrystalformSites short tag>  (2) 
F1c - m0611/B/301

>  <Quatassemblies short tag>  (2) 
A1 - monomer

>  <Crystalforms short tag>  (2) 
F1 - xtalform1

>  <Centroid res>  (2) 
TRIM21-x0031/B/39/B_v1

>  <Experiment code>  (2) 
TRIM21-x0031

>  <Pose>  (2) 
m0031a

>  <exports>  (2) 
/opt/xchem-fragalysis-2/maxwin/TRIM21_FFF/knitwork/iter1/iter1_hits.sdf

$$$$
m0037a
     RDKit          3D

 15 16  0  0  0  0  0  0  0  0999 V2000
  -50.5540   -7.7650  -26.7570 C   0  0  0  0  0  0  0  0  0  0  0  0
  -46.0580   -6.4070  -29.9960 C   0  0  0  0  0  0  0  0  0  0  0  0
  -49.2640   -7.0090  -26.8140 C   0  0  0  0  0  0  0  0  0  0  0  0
  -48.7550   -6.2300  -27.8820 C   0  0  0  0  0  0  0  0  0  0  0  0
  -47.5780   -5.7530  -27.4490 C   0  0  0  0  0  0  0  0  0  0  0  0
  -46.5390   -4.9010  -28.0750 C   0  0  0  0  0  0  0  0  0  0  0  0
  -43.5070   -6.6280  -28.9360 C   0  0  0  0  0  0  0  0  0  0  0  0
  -42.1510   -6.7060  -28.3030 C   0  0  0  0  0  0  0  0  0  0  0  0
  -43.8120   -7.3210  -30.0940 C   0  0  0  0  0  0  0  0  0  0  0  0
  -45.0780   -7.2180  -30.6320 C   0  0  0  0  0  0  0  0  0  0  0  0
  -45.6290   -5.7590  -28.8460 N   0  0  0  0  0  0  0  0  0  0  0  0
  -44.3810   -5.8790  -28.3370 N   0  0  0  0  0  0  0  0  0  0  0  0
  -48.4450   -7.0110  -25.8040 N   0  0  0  0  0  0  0  0  0  0  0  0
  -47.2200   -6.2520  -30.4090 O   0  0  0  0  0  0  0  0  0  0  0  0
  -47.3410   -6.2110  -26.2010 O   0  0  0  0  0  0  0  0  0  0  0  0
  3  1  1  0
  4  3  1  0
  5  4  2  0
  6  5  1  0
  8  7  1  0
  9  7  1  0
 10  9  2  0
 10  2  1  0
 11  2  1  0
 11  6  1  0
 12 11  1  0
 12  7  2  0
 13  3  2  0
 14  2  2  0
 15  5  1  0
 15 13  1  0
M  END
>  <id>  (3) 
3

>  <inchikey>  (3) 
PLCLGFAKZPXQFY-UHFFFAOYSA-N

>  <alias>  (3) 
m0037a

>  <smiles>  (3) 
Cc1cc(Cn2nc(C)ccc2=O)on1

>  <path>  (3) 
/opt/xchem-fragalysis-2/maxwin/BulkDock/TARGETS/TRIM21/aligned_files/m0037a/m0037a.pdb

>  <distance_score>  (3) 
None

>  <energy_score>  (3) 
None

>  <compound>  (3) 
PLCLGFAKZPXQFY-UHFFFAOYSA-N

>  <compound_id>  (3) 
3

>  <target>  (3) 
TRIM21

>  <tags>  (3) 
['Main status', 'GOOD count', 'hits', 'BAD count', '[Other] upload_1 2025-03-17', 'MEDIOCRE count', 'iter1_hits']

>  <inspirations>  (3) 
None

>  <subsites>  (3) 
None

>  <reference>  (3) 


>  <observation_longname>  (3) 
TRIM21-x0037_B_302_v1

>  <ConformerSites alias>  (3) 
1a - m0031/B/401

>  <CanonSites alias>  (3) 
1 - m0031/B/401/1

>  <CrystalformSites alias>  (3) 
F1c - m0611/B/301

>  <Quatassemblies alias>  (3) 
A1 - monomer

>  <Crystalforms alias>  (3) 
F1 - xtalform1

>  <ConformerSites upload name>  (3) 
1a - TRIM21-x0031/B/401

>  <CanonSites upload name>  (3) 
1 - TRIM21-x0031/B/401/1

>  <CrystalformSites upload name>  (3) 
F1c - TRIM21-x0611/B/301/1

>  <Quatassemblies upload name>  (3) 
A1 - monomer

>  <Crystalforms upload name>  (3) 
F1 - xtalform1

>  <ConformerSites short tag>  (3) 
1a - m0031/B/401

>  <CanonSites short tag>  (3) 
1 - m0031/B/401/1

>  <CrystalformSites short tag>  (3) 
F1c - m0611/B/301

>  <Quatassemblies short tag>  (3) 
A1 - monomer

>  <Crystalforms short tag>  (3) 
F1 - xtalform1

>  <Centroid res>  (3) 
TRIM21-x0031/B/39/B_v1

>  <Experiment code>  (3) 
TRIM21-x0037

>  <Pose>  (3) 
m0037a

>  <exports>  (3) 
/opt/xchem-fragalysis-2/maxwin/TRIM21_FFF/knitwork/iter1/iter1_hits.sdf

$$$$
m0043a
     RDKit          3D

 15 17  0  0  0  0  0  0  0  0999 V2000
  -37.6860  -10.6930  -19.3010 C   0  0  0  0  0  0  0  0  0  0  0  0
  -40.1050  -18.4620  -18.2360 C   0  0  0  0  0  0  0  0  0  0  0  0
  -39.3550  -12.2880  -19.5220 C   0  0  0  0  0  0  0  0  0  0  0  0
  -37.4150  -11.6950  -18.2040 C   0  0  0  0  0  0  0  0  0  0  0  0
  -38.3090  -12.8600  -18.5720 C   0  0  2  0  0  0  0  0  0  0  0  0
  -37.4970  -13.7200  -19.5700 C   0  0  0  0  0  0  0  0  0  0  0  0
  -38.2550  -15.0290  -19.7240 C   0  0  0  0  0  0  0  0  0  0  0  0
  -38.4710  -14.0160  -17.5800 C   0  0  0  0  0  0  0  0  0  0  0  0
  -39.3850  -16.3110  -17.8930 C   0  0  0  0  0  0  0  0  0  0  0  0
  -39.8650  -16.3810  -16.5730 C   0  0  0  0  0  0  0  0  0  0  0  0
  -40.5390  -18.5310  -16.9340 C   0  0  0  0  0  0  0  0  0  0  0  0
  -38.7890  -15.1900  -18.3810 N   0  0  0  0  0  0  0  0  0  0  0  0
  -40.4320  -17.4970  -16.0930 N   0  0  0  0  0  0  0  0  0  0  0  0
  -39.5090  -17.3670  -18.7220 N   0  0  0  0  0  0  0  0  0  0  0  0
  -39.0320  -10.8940  -19.7100 O   0  0  0  0  0  0  0  0  0  0  0  0
  4  1  1  0
  5  3  1  6
  5  4  1  0
  6  5  1  0
  7  6  1  0
  8  5  1  0
 10  9  1  0
 11  2  2  0
 12  9  1  0
 12  8  1  0
 12  7  1  0
 13 11  1  0
 13 10  2  0
 14  2  1  0
 14  9  2  0
 15  3  1  0
 15  1  1  0
M  END
>  <id>  (4) 
4

>  <inchikey>  (4) 
ITTBXBSSJHVWJS-NSHDSACASA-N

>  <alias>  (4) 
m0043a

>  <smiles>  (4) 
c1cnc(N2CC[C@]3(CCOC3)C2)cn1

>  <path>  (4) 
/opt/xchem-fragalysis-2/maxwin/BulkDock/TARGETS/TRIM21/aligned_files/m0043a/m0043a.pdb

>  <distance_score>  (4) 
None

>  <energy_score>  (4) 
None

>  <compound>  (4) 
ITTBXBSSJHVWJS-UHFFFAOYSA-N

>  <compound_id>  (4) 
4

>  <target>  (4) 
TRIM21

>  <tags>  (4) 
['Main status', 'GOOD count', 'hits', 'BAD count', '[Other] upload_1 2025-03-17', 'MEDIOCRE count', 'iter1_hits']

>  <inspirations>  (4) 
None

>  <subsites>  (4) 
None

>  <reference>  (4) 


>  <observation_longname>  (4) 
TRIM21-x0043_B_302_v1

>  <ConformerSites alias>  (4) 
2a - m0043/B/302

>  <CanonSites alias>  (4) 
2 - m0043/B/302/1

>  <CrystalformSites alias>  (4) 
F1d - m0043/B/302

>  <Quatassemblies alias>  (4) 
A1 - monomer

>  <Crystalforms alias>  (4) 
F1 - xtalform1

>  <ConformerSites upload name>  (4) 
2a - TRIM21-x0043/B/302

>  <CanonSites upload name>  (4) 
2 - TRIM21-x0043/B/302/1

>  <CrystalformSites upload name>  (4) 
F1d - TRIM21-x0043/B/302/1

>  <Quatassemblies upload name>  (4) 
A1 - monomer

>  <Crystalforms upload name>  (4) 
F1 - xtalform1

>  <ConformerSites short tag>  (4) 
2a - m0043/B/302

>  <CanonSites short tag>  (4) 
2 - m0043/B/302/1

>  <CrystalformSites short tag>  (4) 
F1d - m0043/B/302

>  <Quatassemblies short tag>  (4) 
A1 - monomer

>  <Crystalforms short tag>  (4) 
F1 - xtalform1

>  <Centroid res>  (4) 
TRIM21-x0043/B/109/B_v1

>  <Experiment code>  (4) 
TRIM21-x0043

>  <Pose>  (4) 
m0043a

>  <exports>  (4) 
/opt/xchem-fragalysis-2/maxwin/TRIM21_FFF/knitwork/iter1/iter1_hits.sdf

$$$$
m0046a
     RDKit          3D

 18 20  0  0  0  0  0  0  0  0999 V2000
  -48.9760    4.1320  -25.0750 C   0  0  1  0  0  0  0  0  0  0  0  0
  -46.8810    7.0990  -28.0180 C   0  0  0  0  0  0  0  0  0  0  0  0
  -50.3250    6.7280  -28.1410 C   0  0  0  0  0  0  0  0  0  0  0  0
  -50.2190    8.1120  -28.1010 C   0  0  0  0  0  0  0  0  0  0  0  0
  -51.3500    8.9010  -28.2390 C   0  0  0  0  0  0  0  0  0  0  0  0
  -52.5880    8.3160  -28.3940 C   0  0  0  0  0  0  0  0  0  0  0  0
  -52.7030    6.9440  -28.4290 C   0  0  0  0  0  0  0  0  0  0  0  0
  -51.5720    6.1480  -28.3280 C   0  0  0  0  0  0  0  0  0  0  0  0
  -49.8160    5.3230  -25.5650 C   0  0  0  0  0  0  0  0  0  0  0  0
  -48.0170    4.3630  -26.2520 C   0  0  0  0  0  0  0  0  0  0  0  0
  -49.0840    5.8530  -28.0130 C   0  0  1  0  0  0  0  0  0  0  0  0
  -47.8620    6.4150  -28.7250 C   0  0  0  0  0  0  0  0  0  0  0  0
  -47.7210    6.2600  -30.0950 C   0  0  0  0  0  0  0  0  0  0  0  0
  -46.6080    6.7760  -30.7420 C   0  0  0  0  0  0  0  0  0  0  0  0
  -45.6450    7.4580  -30.0320 C   0  0  0  0  0  0  0  0  0  0  0  0
  -45.7800    7.6210  -28.6760 C   0  0  0  0  0  0  0  0  0  0  0  0
  -48.7770    5.5960  -26.5930 N   0  0  0  0  0  0  0  0  0  0  0  0
  -48.3850    4.2900  -23.8060 O   0  0  0  0  0  0  0  0  0  0  0  0
  4  3  2  0
  5  4  1  0
  6  5  2  0
  7  6  1  0
  8  7  2  0
  8  3  1  0
  9  1  1  0
 10  1  1  0
 11  3  1  0
 12 11  1  0
 12  2  2  0
 13 12  1  0
 14 13  2  0
 15 14  1  0
 16 15  2  0
 16  2  1  0
 17  9  1  0
 11 17  1  1
 17 10  1  0
  1 18  1  1
M  END
>  <id>  (5) 
5

>  <inchikey>  (5) 
MMAJXKGUZYDTHV-UHFFFAOYSA-N

>  <alias>  (5) 
m0046a

>  <smiles>  (5) 
OC1CN(C(c2ccccc2)c2ccccc2)C1

>  <path>  (5) 
/opt/xchem-fragalysis-2/maxwin/BulkDock/TARGETS/TRIM21/aligned_files/m0046a/m0046a.pdb

>  <distance_score>  (5) 
None

>  <energy_score>  (5) 
None

>  <compound>  (5) 
MMAJXKGUZYDTHV-UHFFFAOYSA-N

>  <compound_id>  (5) 
5

>  <target>  (5) 
TRIM21

>  <tags>  (5) 
['Main status', 'GOOD count', 'hits', 'BAD count', '[Other] upload_1 2025-03-17', 'MEDIOCRE count', 'iter1_hits']

>  <inspirations>  (5) 
None

>  <subsites>  (5) 
None

>  <reference>  (5) 


>  <observation_longname>  (5) 
TRIM21-x0046_B_302_v1

>  <ConformerSites alias>  (5) 
4a - m0046/B/302

>  <CanonSites alias>  (5) 
4 - m0046/B/302/1

>  <CrystalformSites alias>  (5) 
F1f - m0046/B/302

>  <Quatassemblies alias>  (5) 
A1 - monomer

>  <Crystalforms alias>  (5) 
F1 - xtalform1

>  <ConformerSites upload name>  (5) 
4a - TRIM21-x0046/B/302

>  <CanonSites upload name>  (5) 
4 - TRIM21-x0046/B/302/1

>  <CrystalformSites upload name>  (5) 
F1f - TRIM21-x0046/B/302/1

>  <Quatassemblies upload name>  (5) 
A1 - monomer

>  <Crystalforms upload name>  (5) 
F1 - xtalform1

>  <ConformerSites short tag>  (5) 
4a - m0046/B/302

>  <CanonSites short tag>  (5) 
4 - m0046/B/302/1

>  <CrystalformSites short tag>  (5) 
F1f - m0046/B/302

>  <Quatassemblies short tag>  (5) 
A1 - monomer

>  <Crystalforms short tag>  (5) 
F1 - xtalform1

>  <Centroid res>  (5) 
TRIM21-x0046/B/42/B_v1

>  <Experiment code>  (5) 
TRIM21-x0046

>  <Pose>  (5) 
m0046a

>  <exports>  (5) 
/opt/xchem-fragalysis-2/maxwin/TRIM21_FFF/knitwork/iter1/iter1_hits.sdf

$$$$
m0099a
     RDKit          3D

 15 17  0  0  0  0  0  0  0  0999 V2000
  -49.8490   -7.0510  -30.3990 C   0  0  0  0  0  0  0  0  0  0  0  0
  -45.6150   -7.4930  -28.2320 C   0  0  0  0  0  0  0  0  0  0  0  0
  -44.5300   -8.3220  -28.4910 C   0  0  0  0  0  0  0  0  0  0  0  0
  -43.2840   -7.7700  -28.7510 C   0  0  0  0  0  0  0  0  0  0  0  0
  -43.1200   -6.3880  -28.7540 C   0  0  0  0  0  0  0  0  0  0  0  0
  -44.2010   -5.5540  -28.4970 C   0  0  0  0  0  0  0  0  0  0  0  0
  -45.4490   -6.1060  -28.2290 C   0  0  0  0  0  0  0  0  0  0  0  0
  -48.9030   -7.8620  -29.5710 C   0  0  0  0  0  0  0  0  0  0  0  0
  -47.7720   -5.7510  -28.8340 C   0  0  0  0  0  0  0  0  0  0  0  0
  -46.7060   -5.3790  -27.7930 C   0  0  1  0  0  0  0  0  0  0  0  0
  -47.1050   -5.9380  -26.4170 C   0  0  0  0  0  0  0  0  0  0  0  0
  -47.3400   -7.4470  -26.5180 C   0  0  0  0  0  0  0  0  0  0  0  0
  -47.0450   -7.9080  -27.9430 C   0  0  1  0  0  0  0  0  0  0  0  0
  -47.9700   -7.2020  -28.8450 N   0  0  0  0  0  0  0  0  0  0  0  0
  -48.9750   -9.0880  -29.5350 O   0  0  0  0  0  0  0  0  0  0  0  0
  3  2  2  0
  4  3  1  0
  5  4  2  0
  6  5  1  0
  7  6  2  0
  7  2  1  0
  8  1  1  0
 10  9  1  6
 10  7  1  0
 11 10  1  0
 12 11  1  0
 13  2  1  0
 13 12  1  1
 14 13  1  0
 14  9  1  0
 14  8  1  0
 15  8  2  0
M  END
>  <id>  (6) 
6

>  <inchikey>  (6) 
ZHZWNSMXXNQTPO-ZWNOBZJWSA-N

>  <alias>  (6) 
m0099a

>  <smiles>  (6) 
CC(=O)N1C[C@H]2CC[C@@H]1c1ccccc12

>  <path>  (6) 
/opt/xchem-fragalysis-2/maxwin/BulkDock/TARGETS/TRIM21/aligned_files/m0099a/m0099a.pdb

>  <distance_score>  (6) 
None

>  <energy_score>  (6) 
None

>  <compound>  (6) 
ZHZWNSMXXNQTPO-UHFFFAOYSA-N

>  <compound_id>  (6) 
6

>  <target>  (6) 
TRIM21

>  <tags>  (6) 
['Main status', 'GOOD count', 'hits', 'BAD count', '[Other] upload_1 2025-03-17', 'MEDIOCRE count', 'iter1_hits']

>  <inspirations>  (6) 
None

>  <subsites>  (6) 
None

>  <reference>  (6) 


>  <observation_longname>  (6) 
TRIM21-x0099_B_201_v1

>  <ConformerSites alias>  (6) 
1a - m0031/B/401

>  <CanonSites alias>  (6) 
1 - m0031/B/401/1

>  <CrystalformSites alias>  (6) 
F1c - m0611/B/301

>  <Quatassemblies alias>  (6) 
A1 - monomer

>  <Crystalforms alias>  (6) 
F1 - xtalform1

>  <ConformerSites upload name>  (6) 
1a - TRIM21-x0031/B/401

>  <CanonSites upload name>  (6) 
1 - TRIM21-x0031/B/401/1

>  <CrystalformSites upload name>  (6) 
F1c - TRIM21-x0611/B/301/1

>  <Quatassemblies upload name>  (6) 
A1 - monomer

>  <Crystalforms upload name>  (6) 
F1 - xtalform1

>  <ConformerSites short tag>  (6) 
1a - m0031/B/401

>  <CanonSites short tag>  (6) 
1 - m0031/B/401/1

>  <CrystalformSites short tag>  (6) 
F1c - m0611/B/301

>  <Quatassemblies short tag>  (6) 
A1 - monomer

>  <Crystalforms short tag>  (6) 
F1 - xtalform1

>  <Centroid res>  (6) 
TRIM21-x0031/B/39/B_v1

>  <Experiment code>  (6) 
TRIM21-x0099

>  <Pose>  (6) 
m0099a

>  <exports>  (6) 
/opt/xchem-fragalysis-2/maxwin/TRIM21_FFF/knitwork/iter1/iter1_hits.sdf

$$$$
m0102a
     RDKit          3D

 15 16  0  0  0  0  0  0  0  0999 V2000
  -45.1570  -14.2180  -14.6990 C   0  0  0  0  0  0  0  0  0  0  0  0
  -40.7220  -18.8750  -11.2440 C   0  0  0  0  0  0  0  0  0  0  0  0
  -40.8600  -18.1800  -12.5780 C   0  0  0  0  0  0  0  0  0  0  0  0
  -44.4010  -15.4860  -14.4640 C   0  0  0  0  0  0  0  0  0  0  0  0
  -43.4180  -15.5820  -13.5220 C   0  0  0  0  0  0  0  0  0  0  0  0
  -42.7720  -16.8200  -13.3610 C   0  0  0  0  0  0  0  0  0  0  0  0
  -44.0600  -17.6790  -15.0630 C   0  0  0  0  0  0  0  0  0  0  0  0
  -44.4300  -18.8390  -15.9450 C   0  0  0  0  0  0  0  0  0  0  0  0
  -41.3160  -16.0580  -11.4580 C   0  0  0  0  0  0  0  0  0  0  0  0
  -41.0980  -16.7150  -10.1050 C   0  0  0  0  0  0  0  0  0  0  0  0
  -40.1910  -17.9230  -10.1920 C   0  0  0  0  0  0  0  0  0  0  0  0
  -43.0950  -17.8580  -14.1560 N   0  0  0  0  0  0  0  0  0  0  0  0
  -44.7230  -16.5340  -15.2360 N   0  0  0  0  0  0  0  0  0  0  0  0
  -41.7480  -17.0220  -12.4770 N   0  0  0  0  0  0  0  0  0  0  0  0
  -45.4490  -18.4640  -16.8590 O   0  0  0  0  0  0  0  0  0  0  0  0
  3  2  1  0
  4  1  1  0
  5  4  2  0
  6  5  1  0
  8  7  1  0
 10  9  1  0
 11  2  1  0
 11 10  1  0
 12  7  1  0
 12  6  2  0
 13  7  2  0
 13  4  1  0
 14  6  1  0
 14  3  1  0
 14  9  1  0
 15  8  1  0
M  END
>  <id>  (7) 
7

>  <inchikey>  (7) 
GZINCFOQQRVKFL-UHFFFAOYSA-N

>  <alias>  (7) 
m0102a

>  <smiles>  (7) 
Cc1cc(N2CCCCC2)nc(CO)n1

>  <path>  (7) 
/opt/xchem-fragalysis-2/maxwin/BulkDock/TARGETS/TRIM21/aligned_files/m0102a/m0102a.pdb

>  <distance_score>  (7) 
None

>  <energy_score>  (7) 
None

>  <compound>  (7) 
GZINCFOQQRVKFL-UHFFFAOYSA-N

>  <compound_id>  (7) 
7

>  <target>  (7) 
TRIM21

>  <tags>  (7) 
['Main status', 'GOOD count', 'hits', 'BAD count', '[Other] upload_1 2025-03-17', 'MEDIOCRE count', 'iter1_hits']

>  <inspirations>  (7) 
None

>  <subsites>  (7) 
None

>  <reference>  (7) 


>  <observation_longname>  (7) 
TRIM21-x0102_B_203_v1

>  <ConformerSites alias>  (7) 
5a - m0102/B/203

>  <CanonSites alias>  (7) 
5 - m0102/B/203/1

>  <CrystalformSites alias>  (7) 
F1h - m0102/B/203

>  <Quatassemblies alias>  (7) 
A1 - monomer

>  <Crystalforms alias>  (7) 
F1 - xtalform1

>  <ConformerSites upload name>  (7) 
5a - TRIM21-x0102/B/203

>  <CanonSites upload name>  (7) 
5 - TRIM21-x0102/B/203/1

>  <CrystalformSites upload name>  (7) 
F1h - TRIM21-x0102/B/203/1

>  <Quatassemblies upload name>  (7) 
A1 - monomer

>  <Crystalforms upload name>  (7) 
F1 - xtalform1

>  <ConformerSites short tag>  (7) 
5a - m0102/B/203

>  <CanonSites short tag>  (7) 
5 - m0102/B/203/1

>  <CrystalformSites short tag>  (7) 
F1h - m0102/B/203

>  <Quatassemblies short tag>  (7) 
A1 - monomer

>  <Crystalforms short tag>  (7) 
F1 - xtalform1

>  <Centroid res>  (7) 
TRIM21-x0102/B/115/B_v1

>  <Experiment code>  (7) 
TRIM21-x0102

>  <Pose>  (7) 
m0102a

>  <exports>  (7) 
/opt/xchem-fragalysis-2/maxwin/TRIM21_FFF/knitwork/iter1/iter1_hits.sdf

$$$$
m0140a
     RDKit          3D

 17 18  0  0  0  0  0  0  0  0999 V2000
  -46.9380   -4.8710  -25.3910 C   0  0  0  0  0  0  0  0  0  0  0  0
  -43.1000   -7.4230  -28.9400 C   0  0  0  0  0  0  0  0  0  0  0  0
  -43.2400   -6.0290  -28.8620 C   0  0  0  0  0  0  0  0  0  0  0  0
  -44.4560   -5.4370  -28.5730 C   0  0  0  0  0  0  0  0  0  0  0  0
  -45.5200   -6.2980  -28.3740 C   0  0  0  0  0  0  0  0  0  0  0  0
  -47.9830   -4.6010  -26.4580 C   0  0  0  0  0  0  0  0  0  0  0  0
  -47.4290   -4.7420  -27.8600 C   0  0  0  0  0  0  0  0  0  0  0  0
  -47.4440   -7.3050  -27.9870 C   0  0  0  0  0  0  0  0  0  0  0  0
  -49.3150   -8.7860  -27.5950 C   0  0  0  0  0  0  0  0  0  0  0  0
  -49.7420   -9.4400  -28.8950 C   0  0  0  0  0  0  0  0  0  0  0  0
  -49.3650  -10.8950  -28.9680 C   0  0  0  0  0  0  0  0  0  0  0  0
  -45.3910   -7.6860  -28.4530 C   0  0  0  0  0  0  0  0  0  0  0  0
  -44.1710   -8.2630  -28.7550 C   0  0  0  0  0  0  0  0  0  0  0  0
  -46.8410   -6.0590  -28.0820 N   0  0  0  0  0  0  0  0  0  0  0  0
  -48.7740   -7.5390  -27.7180 N   0  0  0  0  0  0  0  0  0  0  0  0
  -46.6170   -8.3010  -28.2120 N   0  0  0  0  0  0  0  0  0  0  0  0
  -49.3980   -9.3630  -26.5200 O   0  0  0  0  0  0  0  0  0  0  0  0
  3  2  2  0
  4  3  1  0
  5  4  2  0
  6  1  1  0
  7  6  1  0
 10  9  1  0
 11 10  1  0
 12  5  1  0
 13 12  2  0
 13  2  1  0
 14  8  1  0
 14  5  1  0
 14  7  1  0
 15  9  1  0
 15  8  1  0
 16 12  1  0
 16  8  2  0
 17  9  2  0
M  END
>  <id>  (8) 
8

>  <inchikey>  (8) 
KFQGOQCGYCFOQG-UHFFFAOYSA-N

>  <alias>  (8) 
m0140a

>  <smiles>  (8) 
CCCn1c(NC(=O)CC)nc2ccccc21

>  <path>  (8) 
/opt/xchem-fragalysis-2/maxwin/BulkDock/TARGETS/TRIM21/aligned_files/m0140a/m0140a.pdb

>  <distance_score>  (8) 
None

>  <energy_score>  (8) 
None

>  <compound>  (8) 
KFQGOQCGYCFOQG-UHFFFAOYSA-N

>  <compound_id>  (8) 
8

>  <target>  (8) 
TRIM21

>  <tags>  (8) 
['Main status', 'GOOD count', 'hits', 'BAD count', '[Other] upload_1 2025-03-17', 'MEDIOCRE count', 'iter1_hits']

>  <inspirations>  (8) 
None

>  <subsites>  (8) 
None

>  <reference>  (8) 


>  <observation_longname>  (8) 
TRIM21-x0140_B_402_v1

>  <ConformerSites alias>  (8) 
1a - m0031/B/401

>  <CanonSites alias>  (8) 
1 - m0031/B/401/1

>  <CrystalformSites alias>  (8) 
F1b - m0140/B/402

>  <Quatassemblies alias>  (8) 
A1 - monomer

>  <Crystalforms alias>  (8) 
F1 - xtalform1

>  <ConformerSites upload name>  (8) 
1a - TRIM21-x0031/B/401

>  <CanonSites upload name>  (8) 
1 - TRIM21-x0031/B/401/1

>  <CrystalformSites upload name>  (8) 
F1b - TRIM21-x0140/B/402/1

>  <Quatassemblies upload name>  (8) 
A1 - monomer

>  <Crystalforms upload name>  (8) 
F1 - xtalform1

>  <ConformerSites short tag>  (8) 
1a - m0031/B/401

>  <CanonSites short tag>  (8) 
1 - m0031/B/401/1

>  <CrystalformSites short tag>  (8) 
F1b - m0140/B/402

>  <Quatassemblies short tag>  (8) 
A1 - monomer

>  <Crystalforms short tag>  (8) 
F1 - xtalform1

>  <Centroid res>  (8) 
TRIM21-x0031/B/39/B_v1

>  <Experiment code>  (8) 
TRIM21-x0140

>  <Pose>  (8) 
m0140a

>  <exports>  (8) 
/opt/xchem-fragalysis-2/maxwin/TRIM21_FFF/knitwork/iter1/iter1_hits.sdf

$$$$
m0176a
     RDKit          3D

 18 20  0  0  0  0  0  0  0  0999 V2000
  -30.0060  -31.2330  -24.8900 C   0  0  0  0  0  0  0  0  0  0  0  0
  -26.1960  -27.2870  -21.7020 C   0  0  0  0  0  0  0  0  0  0  0  0
  -25.2310  -26.6360  -21.0100 C   0  0  0  0  0  0  0  0  0  0  0  0
  -25.6270  -26.5940  -19.6560 C   0  0  0  0  0  0  0  0  0  0  0  0
  -26.8480  -27.2040  -19.6000 C   0  0  0  0  0  0  0  0  0  0  0  0
  -30.3530  -31.4630  -26.3080 C   0  0  2  0  0  0  0  0  0  0  0  0
  -31.7840  -31.6730  -26.6670 C   0  0  0  0  0  0  0  0  0  0  0  0
  -30.8520  -32.8100  -26.7080 C   0  0  0  0  0  0  0  0  0  0  0  0
  -29.2230  -29.7720  -23.0810 C   0  0  0  0  0  0  0  0  0  0  0  0
  -27.7490  -29.6710  -22.7460 C   0  0  0  0  0  0  0  0  0  0  0  0
  -27.3350  -28.8280  -25.0220 C   0  0  0  0  0  0  0  0  0  0  0  0
  -28.7980  -29.0570  -25.3490 C   0  0  0  0  0  0  0  0  0  0  0  0
  -26.3310  -27.6340  -23.1230 C   0  0  0  0  0  0  0  0  0  0  0  0
  -29.3850  -30.0920  -24.4960 N   0  0  0  0  0  0  0  0  0  0  0  0
  -27.0980  -28.6500  -23.5810 N   0  0  0  0  0  0  0  0  0  0  0  0
  -30.3070  -32.0760  -24.0470 O   0  0  0  0  0  0  0  0  0  0  0  0
  -25.7500  -26.9110  -23.9320 O   0  0  0  0  0  0  0  0  0  0  0  0
  -27.2010  -27.6440  -20.8430 O   0  0  0  0  0  0  0  0  0  0  0  0
  3  2  2  0
  4  3  1  0
  5  4  2  0
  6  1  1  1
  7  6  1  0
  8  7  1  0
  8  6  1  0
 10  9  1  0
 12 11  1  0
 13  2  1  0
 14 12  1  0
 14  9  1  0
 14  1  1  0
 15 11  1  0
 15 10  1  0
 15 13  1  0
 16  1  2  0
 17 13  2  0
 18  2  1  0
 18  5  1  0
M  END
>  <id>  (9) 
9

>  <inchikey>  (9) 
SMBREKYBPARCFW-UHFFFAOYSA-N

>  <alias>  (9) 
m0176a

>  <smiles>  (9) 
O=C(c1ccco1)N1CCN(C(=O)C2CC2)CC1

>  <path>  (9) 
/opt/xchem-fragalysis-2/maxwin/BulkDock/TARGETS/TRIM21/aligned_files/m0176a/m0176a.pdb

>  <distance_score>  (9) 
None

>  <energy_score>  (9) 
None

>  <compound>  (9) 
SMBREKYBPARCFW-UHFFFAOYSA-N

>  <compound_id>  (9) 
9

>  <target>  (9) 
TRIM21

>  <tags>  (9) 
['Main status', 'GOOD count', 'hits', 'BAD count', '[Other] upload_1 2025-03-17', 'MEDIOCRE count', 'iter1_hits']

>  <inspirations>  (9) 
None

>  <subsites>  (9) 
None

>  <reference>  (9) 


>  <observation_longname>  (9) 
TRIM21-x0176_B_302_v1

>  <ConformerSites alias>  (9) 
3a - m0176/B/302

>  <CanonSites alias>  (9) 
3 - m0176/B/302/1

>  <CrystalformSites alias>  (9) 
F1e - m0176/B/302

>  <Quatassemblies alias>  (9) 
A1 - monomer

>  <Crystalforms alias>  (9) 
F1 - xtalform1

>  <ConformerSites upload name>  (9) 
3a - TRIM21-x0176/B/302

>  <CanonSites upload name>  (9) 
3 - TRIM21-x0176/B/302/1

>  <CrystalformSites upload name>  (9) 
F1e - TRIM21-x0176/B/302/1

>  <Quatassemblies upload name>  (9) 
A1 - monomer

>  <Crystalforms upload name>  (9) 
F1 - xtalform1

>  <ConformerSites short tag>  (9) 
3a - m0176/B/302

>  <CanonSites short tag>  (9) 
3 - m0176/B/302/1

>  <CrystalformSites short tag>  (9) 
F1e - m0176/B/302

>  <Quatassemblies short tag>  (9) 
A1 - monomer

>  <Crystalforms short tag>  (9) 
F1 - xtalform1

>  <Centroid res>  (9) 
TRIM21-x0176/B/101/B_v1

>  <Experiment code>  (9) 
TRIM21-x0176

>  <Pose>  (9) 
m0176a

>  <exports>  (9) 
/opt/xchem-fragalysis-2/maxwin/TRIM21_FFF/knitwork/iter1/iter1_hits.sdf

$$$$
m0194a
     RDKit          3D

 15 16  0  0  0  0  0  0  0  0999 V2000
  -38.9530  -16.1770  -24.2130 C   0  0  0  0  0  0  0  0  0  0  0  0
  -42.2340  -15.0530  -21.5580 C   0  0  0  0  0  0  0  0  0  0  0  0
  -39.7830  -16.0510  -22.9470 C   0  0  1  0  0  0  0  0  0  0  0  0
  -39.2170  -16.9000  -21.8300 C   0  0  0  0  0  0  0  0  0  0  0  0
  -38.8310  -13.7810  -22.6380 C   0  0  0  0  0  0  0  0  0  0  0  0
  -41.1290  -14.2270  -21.9020 C   0  0  0  0  0  0  0  0  0  0  0  0
  -42.2910  -12.4460  -20.9750 C   0  0  0  0  0  0  0  0  0  0  0  0
  -43.3130  -14.4170  -20.9080 C   0  0  0  0  0  0  0  0  0  0  0  0
  -45.5750  -15.1900  -20.0190 C   0  0  0  0  0  0  0  0  0  0  0  0
  -42.6550  -16.4010  -21.6340 C   0  0  0  0  0  0  0  0  0  0  0  0
  -39.9840  -14.6550  -22.4920 N   0  0  0  0  0  0  0  0  0  0  0  0
  -41.1910  -12.9150  -21.5800 N   0  0  0  0  0  0  0  0  0  0  0  0
  -43.3800  -13.1100  -20.6010 N   0  0  0  0  0  0  0  0  0  0  0  0
  -44.2680  -15.3590  -20.6670 N   0  0  0  0  0  0  0  0  0  0  0  0
  -43.8560  -16.5860  -21.1160 N   0  0  0  0  0  0  0  0  0  0  0  0
  3  1  1  6
  4  3  1  0
  6  2  2  0
  8  2  1  0
 10  2  1  0
 11  6  1  0
 11  5  1  0
 11  3  1  0
 12  6  1  0
 12  7  2  0
 13  8  2  0
 13  7  1  0
 14  9  1  0
 14  8  1  0
 15 14  1  0
 15 10  2  0
M  END
>  <id>  (10) 
10

>  <inchikey>  (10) 
ACQZDWVVKAKBAO-UHFFFAOYSA-N

>  <alias>  (10) 
m0194a

>  <smiles>  (10) 
CC(C)N(C)c1ncnc2c1cnn2C

>  <path>  (10) 
/opt/xchem-fragalysis-2/maxwin/BulkDock/TARGETS/TRIM21/aligned_files/m0194a/m0194a.pdb

>  <distance_score>  (10) 
None

>  <energy_score>  (10) 
None

>  <compound>  (10) 
ACQZDWVVKAKBAO-UHFFFAOYSA-N

>  <compound_id>  (10) 
10

>  <target>  (10) 
TRIM21

>  <tags>  (10) 
['Main status', 'GOOD count', 'hits', 'BAD count', '[Other] upload_1 2025-03-17', 'MEDIOCRE count', 'iter1_hits']

>  <inspirations>  (10) 
None

>  <subsites>  (10) 
None

>  <reference>  (10) 


>  <observation_longname>  (10) 
TRIM21-x0194_B_302_v1

>  <ConformerSites alias>  (10) 
2a - m0043/B/302

>  <CanonSites alias>  (10) 
2 - m0043/B/302/1

>  <CrystalformSites alias>  (10) 
F1d - m0043/B/302

>  <Quatassemblies alias>  (10) 
A1 - monomer

>  <Crystalforms alias>  (10) 
F1 - xtalform1

>  <ConformerSites upload name>  (10) 
2a - TRIM21-x0043/B/302

>  <CanonSites upload name>  (10) 
2 - TRIM21-x0043/B/302/1

>  <CrystalformSites upload name>  (10) 
F1d - TRIM21-x0043/B/302/1

>  <Quatassemblies upload name>  (10) 
A1 - monomer

>  <Crystalforms upload name>  (10) 
F1 - xtalform1

>  <ConformerSites short tag>  (10) 
2a - m0043/B/302

>  <CanonSites short tag>  (10) 
2 - m0043/B/302/1

>  <CrystalformSites short tag>  (10) 
F1d - m0043/B/302

>  <Quatassemblies short tag>  (10) 
A1 - monomer

>  <Crystalforms short tag>  (10) 
F1 - xtalform1

>  <Centroid res>  (10) 
TRIM21-x0043/B/109/B_v1

>  <Experiment code>  (10) 
TRIM21-x0194

>  <Pose>  (10) 
m0194a

>  <exports>  (10) 
/opt/xchem-fragalysis-2/maxwin/TRIM21_FFF/knitwork/iter1/iter1_hits.sdf

$$$$
m0194b
     RDKit          3D

 15 16  0  0  0  0  0  0  0  0999 V2000
  -41.2510  -17.2850  -15.7650 C   0  0  0  0  0  0  0  0  0  0  0  0
  -39.6690  -13.7370  -18.3760 C   0  0  0  0  0  0  0  0  0  0  0  0
  -40.9380  -17.1710  -17.2480 C   0  0  1  0  0  0  0  0  0  0  0  0
  -41.8700  -18.0510  -18.0630 C   0  0  0  0  0  0  0  0  0  0  0  0
  -42.2050  -15.0960  -17.6220 C   0  0  0  0  0  0  0  0  0  0  0  0
  -39.7890  -15.1400  -18.1640 C   0  0  0  0  0  0  0  0  0  0  0  0
  -37.5870  -15.3430  -18.8750 C   0  0  0  0  0  0  0  0  0  0  0  0
  -38.4050  -13.2750  -18.8240 C   0  0  0  0  0  0  0  0  0  0  0  0
  -37.4850  -10.9480  -19.3900 C   0  0  0  0  0  0  0  0  0  0  0  0
  -40.4210  -12.5440  -18.2330 C   0  0  0  0  0  0  0  0  0  0  0  0
  -40.9210  -15.7620  -17.7160 N   0  0  0  0  0  0  0  0  0  0  0  0
  -38.7160  -15.9160  -18.4460 N   0  0  0  0  0  0  0  0  0  0  0  0
  -37.3440  -14.0560  -19.0990 N   0  0  0  0  0  0  0  0  0  0  0  0
  -38.4840  -11.9190  -18.9380 N   0  0  0  0  0  0  0  0  0  0  0  0
  -39.7380  -11.4700  -18.5800 N   0  0  0  0  0  0  0  0  0  0  0  0
  3  1  1  1
  4  3  1  0
  6  2  2  0
  8  2  1  0
 10  2  1  0
 11  3  1  0
 11  6  1  0
 11  5  1  0
 12  6  1  0
 12  7  2  0
 13  8  2  0
 13  7  1  0
 14  8  1  0
 14  9  1  0
 15 14  1  0
 15 10  2  0
M  END
>  <id>  (11) 
11

>  <inchikey>  (11) 
ACQZDWVVKAKBAO-UHFFFAOYSA-N

>  <alias>  (11) 
m0194b

>  <smiles>  (11) 
CC(C)N(C)c1ncnc2c1cnn2C

>  <path>  (11) 
/opt/xchem-fragalysis-2/maxwin/BulkDock/TARGETS/TRIM21/aligned_files/m0194b/m0194b.pdb

>  <distance_score>  (11) 
None

>  <energy_score>  (11) 
None

>  <compound>  (11) 
ACQZDWVVKAKBAO-UHFFFAOYSA-N

>  <compound_id>  (11) 
10

>  <target>  (11) 
TRIM21

>  <tags>  (11) 
['Main status', 'GOOD count', 'hits', 'BAD count', '[Other] upload_1 2025-03-17', 'MEDIOCRE count', 'iter1_hits']

>  <inspirations>  (11) 
None

>  <subsites>  (11) 
None

>  <reference>  (11) 


>  <observation_longname>  (11) 
TRIM21-x0194_B_401_v1

>  <ConformerSites alias>  (11) 
2a - m0043/B/302

>  <CanonSites alias>  (11) 
2 - m0043/B/302/1

>  <CrystalformSites alias>  (11) 
F1d - m0043/B/302

>  <Quatassemblies alias>  (11) 
A1 - monomer

>  <Crystalforms alias>  (11) 
F1 - xtalform1

>  <ConformerSites upload name>  (11) 
2a - TRIM21-x0043/B/302

>  <CanonSites upload name>  (11) 
2 - TRIM21-x0043/B/302/1

>  <CrystalformSites upload name>  (11) 
F1d - TRIM21-x0043/B/302/1

>  <Quatassemblies upload name>  (11) 
A1 - monomer

>  <Crystalforms upload name>  (11) 
F1 - xtalform1

>  <ConformerSites short tag>  (11) 
2a - m0043/B/302

>  <CanonSites short tag>  (11) 
2 - m0043/B/302/1

>  <CrystalformSites short tag>  (11) 
F1d - m0043/B/302

>  <Quatassemblies short tag>  (11) 
A1 - monomer

>  <Crystalforms short tag>  (11) 
F1 - xtalform1

>  <Centroid res>  (11) 
TRIM21-x0043/B/109/B_v1

>  <Experiment code>  (11) 
TRIM21-x0194

>  <Pose>  (11) 
m0194a

>  <exports>  (11) 
/opt/xchem-fragalysis-2/maxwin/TRIM21_FFF/knitwork/iter1/iter1_hits.sdf

$$$$
m0199a
     RDKit          3D

 13 14  0  0  0  0  0  0  0  0999 V2000
  -46.6170   -6.4630  -27.7230 C   0  0  0  0  0  0  0  0  0  0  0  0
  -44.7750   -5.4290  -29.0380 C   0  0  0  0  0  0  0  0  0  0  0  0
  -43.3810   -5.9970  -29.1210 C   0  0  0  0  0  0  0  0  0  0  0  0
  -44.1710   -8.1470  -29.6120 C   0  0  0  0  0  0  0  0  0  0  0  0
  -45.6050   -7.6910  -29.5680 C   0  0  0  0  0  0  0  0  0  0  0  0
  -46.5930   -5.2740  -26.8530 C   0  0  0  0  0  0  0  0  0  0  0  0
  -47.5890   -4.3600  -26.7450 C   0  0  0  0  0  0  0  0  0  0  0  0
  -45.7170   -6.5050  -28.7130 N   0  0  0  0  0  0  0  0  0  0  0  0
  -45.8780   -4.2960  -25.0720 N   0  0  0  0  0  0  0  0  0  0  0  0
  -45.5240   -4.9770  -26.0840 N   0  0  0  0  0  0  0  0  0  0  0  0
  -47.3940   -7.3900  -27.4960 O   0  0  0  0  0  0  0  0  0  0  0  0
  -43.3250   -7.0860  -30.0400 O   0  0  0  0  0  0  0  0  0  0  0  0
  -47.2250   -3.3400  -25.4120 S   0  0  0  0  0  0  0  0  0  0  0  0
  3  2  1  0
  5  4  1  0
  6  1  1  0
  7  6  2  0
  8  5  1  0
  8  1  1  0
  8  2  1  0
 10  9  2  0
 10  6  1  0
 11  1  2  0
 12  4  1  0
 12  3  1  0
 13  9  1  0
 13  7  1  0
M  END
>  <id>  (12) 
12

>  <inchikey>  (12) 
BPUDGPLMUNVDOA-UHFFFAOYSA-N

>  <alias>  (12) 
m0199a

>  <smiles>  (12) 
O=C(c1csnn1)N1CCOCC1

>  <path>  (12) 
/opt/xchem-fragalysis-2/maxwin/BulkDock/TARGETS/TRIM21/aligned_files/m0199a/m0199a.pdb

>  <distance_score>  (12) 
None

>  <energy_score>  (12) 
None

>  <compound>  (12) 
BPUDGPLMUNVDOA-UHFFFAOYSA-N

>  <compound_id>  (12) 
11

>  <target>  (12) 
TRIM21

>  <tags>  (12) 
['Main status', 'GOOD count', 'hits', 'BAD count', '[Other] upload_1 2025-03-17', 'MEDIOCRE count', 'iter1_hits']

>  <inspirations>  (12) 
None

>  <subsites>  (12) 
None

>  <reference>  (12) 


>  <observation_longname>  (12) 
TRIM21-x0199_B_401_v1

>  <ConformerSites alias>  (12) 
1a - m0031/B/401

>  <CanonSites alias>  (12) 
1 - m0031/B/401/1

>  <CrystalformSites alias>  (12) 
F1c - m0611/B/301

>  <Quatassemblies alias>  (12) 
A1 - monomer

>  <Crystalforms alias>  (12) 
F1 - xtalform1

>  <ConformerSites upload name>  (12) 
1a - TRIM21-x0031/B/401

>  <CanonSites upload name>  (12) 
1 - TRIM21-x0031/B/401/1

>  <CrystalformSites upload name>  (12) 
F1c - TRIM21-x0611/B/301/1

>  <Quatassemblies upload name>  (12) 
A1 - monomer

>  <Crystalforms upload name>  (12) 
F1 - xtalform1

>  <ConformerSites short tag>  (12) 
1a - m0031/B/401

>  <CanonSites short tag>  (12) 
1 - m0031/B/401/1

>  <CrystalformSites short tag>  (12) 
F1c - m0611/B/301

>  <Quatassemblies short tag>  (12) 
A1 - monomer

>  <Crystalforms short tag>  (12) 
F1 - xtalform1

>  <Centroid res>  (12) 
TRIM21-x0031/B/39/B_v1

>  <Experiment code>  (12) 
TRIM21-x0199

>  <Pose>  (12) 
m0199a

>  <exports>  (12) 
/opt/xchem-fragalysis-2/maxwin/TRIM21_FFF/knitwork/iter1/iter1_hits.sdf

$$$$
m0199b
     RDKit          3D

 13 14  0  0  0  0  0  0  0  0999 V2000
  -26.3420  -27.8190  -23.1070 C   0  0  0  0  0  0  0  0  0  0  0  0
  -25.9550  -26.2320  -21.3650 C   0  0  0  0  0  0  0  0  0  0  0  0
  -25.0410  -26.1790  -20.1800 C   0  0  0  0  0  0  0  0  0  0  0  0
  -25.5380  -28.3280  -19.5160 C   0  0  0  0  0  0  0  0  0  0  0  0
  -26.4580  -28.5810  -20.6900 C   0  0  0  0  0  0  0  0  0  0  0  0
  -27.3010  -28.8350  -23.5890 C   0  0  0  0  0  0  0  0  0  0  0  0
  -27.6780  -28.9430  -24.8920 C   0  0  0  0  0  0  0  0  0  0  0  0
  -26.2460  -27.6080  -21.7730 N   0  0  0  0  0  0  0  0  0  0  0  0
  -29.1550  -29.8500  -23.2450 N   0  0  0  0  0  0  0  0  0  0  0  0
  -27.9630  -29.7430  -22.8110 N   0  0  0  0  0  0  0  0  0  0  0  0
  -25.7790  -27.1040  -23.9320 O   0  0  0  0  0  0  0  0  0  0  0  0
  -25.5370  -26.9660  -19.1140 O   0  0  0  0  0  0  0  0  0  0  0  0
  -29.1860  -29.8030  -24.9330 S   0  0  0  0  0  0  0  0  0  0  0  0
  3  2  1  0
  5  4  1  0
  6  1  1  0
  7  6  2  0
  8  1  1  0
  8  5  1  0
  8  2  1  0
 10  9  2  0
 10  6  1  0
 11  1  2  0
 12  4  1  0
 12  3  1  0
 13  9  1  0
 13  7  1  0
M  END
>  <id>  (13) 
13

>  <inchikey>  (13) 
BPUDGPLMUNVDOA-UHFFFAOYSA-N

>  <alias>  (13) 
m0199b

>  <smiles>  (13) 
O=C(c1csnn1)N1CCOCC1

>  <path>  (13) 
/opt/xchem-fragalysis-2/maxwin/BulkDock/TARGETS/TRIM21/aligned_files/m0199b/m0199b.pdb

>  <distance_score>  (13) 
None

>  <energy_score>  (13) 
None

>  <compound>  (13) 
BPUDGPLMUNVDOA-UHFFFAOYSA-N

>  <compound_id>  (13) 
11

>  <target>  (13) 
TRIM21

>  <tags>  (13) 
['Main status', 'GOOD count', 'hits', 'BAD count', '[Other] upload_1 2025-03-17', 'MEDIOCRE count', 'iter1_hits']

>  <inspirations>  (13) 
None

>  <subsites>  (13) 
None

>  <reference>  (13) 


>  <observation_longname>  (13) 
TRIM21-x0199_B_302_v1

>  <ConformerSites alias>  (13) 
3a - m0176/B/302

>  <CanonSites alias>  (13) 
3 - m0176/B/302/1

>  <CrystalformSites alias>  (13) 
F1e - m0176/B/302

>  <Quatassemblies alias>  (13) 
A1 - monomer

>  <Crystalforms alias>  (13) 
F1 - xtalform1

>  <ConformerSites upload name>  (13) 
3a - TRIM21-x0176/B/302

>  <CanonSites upload name>  (13) 
3 - TRIM21-x0176/B/302/1

>  <CrystalformSites upload name>  (13) 
F1e - TRIM21-x0176/B/302/1

>  <Quatassemblies upload name>  (13) 
A1 - monomer

>  <Crystalforms upload name>  (13) 
F1 - xtalform1

>  <ConformerSites short tag>  (13) 
3a - m0176/B/302

>  <CanonSites short tag>  (13) 
3 - m0176/B/302/1

>  <CrystalformSites short tag>  (13) 
F1e - m0176/B/302

>  <Quatassemblies short tag>  (13) 
A1 - monomer

>  <Crystalforms short tag>  (13) 
F1 - xtalform1

>  <Centroid res>  (13) 
TRIM21-x0176/B/101/B_v1

>  <Experiment code>  (13) 
TRIM21-x0199

>  <Pose>  (13) 
m0199b

>  <exports>  (13) 
/opt/xchem-fragalysis-2/maxwin/TRIM21_FFF/knitwork/iter1/iter1_hits.sdf

$$$$
m0215a
     RDKit          3D

 15 16  0  0  0  0  0  0  0  0999 V2000
  -26.0950  -27.9580  -20.4090 C   0  0  0  0  0  0  0  0  0  0  0  0
  -25.3600  -28.6610  -21.5340 C   0  0  0  0  0  0  0  0  0  0  0  0
  -27.0990  -29.8990  -22.9060 C   0  0  0  0  0  0  0  0  0  0  0  0
  -27.9170  -29.5010  -24.1340 C   0  0  0  0  0  0  0  0  0  0  0  0
  -27.1760  -28.3640  -24.7550 C   0  0  0  0  0  0  0  0  0  0  0  0
  -26.1880  -27.9000  -23.6960 C   0  0  0  0  0  0  0  0  0  0  0  0
  -25.8110  -26.8950  -18.2410 C   0  0  0  0  0  0  0  0  0  0  0  0
  -25.7650  -25.9500  -16.2600 C   0  0  0  0  0  0  0  0  0  0  0  0
  -27.0850  -26.1720  -16.3340 C   0  0  0  0  0  0  0  0  0  0  0  0
  -26.1730  -28.7990  -22.7090 N   0  0  0  0  0  0  0  0  0  0  0  0
  -25.3120  -27.4500  -19.4080 N   0  0  0  0  0  0  0  0  0  0  0  0
  -25.0220  -26.3540  -17.3490 N   0  0  0  0  0  0  0  0  0  0  0  0
  -27.3220  -27.8820  -20.4100 O   0  0  0  0  0  0  0  0  0  0  0  0
  -25.5010  -26.8820  -23.7100 O   0  0  0  0  0  0  0  0  0  0  0  0
  -27.4980  -26.8440  -17.8600 S   0  0  0  0  0  0  0  0  0  0  0  0
  2  1  1  0
  4  3  1  0
  5  4  1  0
  6  5  1  0
  9  8  2  0
 10  6  1  0
 10  3  1  0
 10  2  1  0
 11  1  1  0
 11  7  1  0
 12  7  2  0
 12  8  1  0
 13  1  2  0
 14  6  2  0
 15  7  1  0
 15  9  1  0
M  END
>  <id>  (14) 
14

>  <inchikey>  (14) 
JHZYBLIEJWESOZ-UHFFFAOYSA-N

>  <alias>  (14) 
m0215a

>  <smiles>  (14) 
O=C(CN1CCCC1=O)Nc1nccs1

>  <path>  (14) 
/opt/xchem-fragalysis-2/maxwin/BulkDock/TARGETS/TRIM21/aligned_files/m0215a/m0215a.pdb

>  <distance_score>  (14) 
None

>  <energy_score>  (14) 
None

>  <compound>  (14) 
JHZYBLIEJWESOZ-UHFFFAOYSA-N

>  <compound_id>  (14) 
12

>  <target>  (14) 
TRIM21

>  <tags>  (14) 
['Main status', 'GOOD count', 'hits', 'BAD count', '[Other] upload_1 2025-03-17', 'MEDIOCRE count', 'iter1_hits']

>  <inspirations>  (14) 
None

>  <subsites>  (14) 
None

>  <reference>  (14) 


>  <observation_longname>  (14) 
TRIM21-x0215_B_401_v1

>  <ConformerSites alias>  (14) 
3a - m0176/B/302

>  <CanonSites alias>  (14) 
3 - m0176/B/302/1

>  <CrystalformSites alias>  (14) 
F1e - m0176/B/302

>  <Quatassemblies alias>  (14) 
A1 - monomer

>  <Crystalforms alias>  (14) 
F1 - xtalform1

>  <ConformerSites upload name>  (14) 
3a - TRIM21-x0176/B/302

>  <CanonSites upload name>  (14) 
3 - TRIM21-x0176/B/302/1

>  <CrystalformSites upload name>  (14) 
F1e - TRIM21-x0176/B/302/1

>  <Quatassemblies upload name>  (14) 
A1 - monomer

>  <Crystalforms upload name>  (14) 
F1 - xtalform1

>  <ConformerSites short tag>  (14) 
3a - m0176/B/302

>  <CanonSites short tag>  (14) 
3 - m0176/B/302/1

>  <CrystalformSites short tag>  (14) 
F1e - m0176/B/302

>  <Quatassemblies short tag>  (14) 
A1 - monomer

>  <Crystalforms short tag>  (14) 
F1 - xtalform1

>  <Centroid res>  (14) 
TRIM21-x0176/B/101/B_v1

>  <Experiment code>  (14) 
TRIM21-x0215

>  <Pose>  (14) 
m0215a

>  <exports>  (14) 
/opt/xchem-fragalysis-2/maxwin/TRIM21_FFF/knitwork/iter1/iter1_hits.sdf

$$$$
m0215b
     RDKit          3D

 15 16  0  0  0  0  0  0  0  0999 V2000
  -19.1490  -17.3440  -39.8770 C   0  0  0  0  0  0  0  0  0  0  0  0
  -17.6860  -17.2850  -40.2610 C   0  0  0  0  0  0  0  0  0  0  0  0
  -16.8970  -19.3180  -38.9610 C   0  0  0  0  0  0  0  0  0  0  0  0
  -15.6580  -19.5560  -38.1070 C   0  0  0  0  0  0  0  0  0  0  0  0
  -15.1610  -18.1820  -37.7120 C   0  0  0  0  0  0  0  0  0  0  0  0
  -15.8920  -17.2240  -38.6110 C   0  0  0  0  0  0  0  0  0  0  0  0
  -21.3870  -17.0830  -40.8300 C   0  0  0  0  0  0  0  0  0  0  0  0
  -23.4440  -16.6500  -41.4800 C   0  0  0  0  0  0  0  0  0  0  0  0
  -23.7390  -17.3260  -40.3600 C   0  0  0  0  0  0  0  0  0  0  0  0
  -16.8170  -17.9020  -39.2960 N   0  0  0  0  0  0  0  0  0  0  0  0
  -20.0080  -17.0510  -40.9030 N   0  0  0  0  0  0  0  0  0  0  0  0
  -22.1090  -16.6330  -41.8250 N   0  0  0  0  0  0  0  0  0  0  0  0
  -19.5110  -17.6570  -38.7420 O   0  0  0  0  0  0  0  0  0  0  0  0
  -15.7070  -16.0150  -38.7040 O   0  0  0  0  0  0  0  0  0  0  0  0
  -22.2970  -17.6750  -39.4830 S   0  0  0  0  0  0  0  0  0  0  0  0
  2  1  1  0
  4  3  1  0
  5  4  1  0
  6  5  1  0
  9  8  2  0
 10  3  1  0
 10  2  1  0
 10  6  1  0
 11  7  1  0
 11  1  1  0
 12  8  1  0
 12  7  2  0
 13  1  2  0
 14  6  2  0
 15  9  1  0
 15  7  1  0
M  END
>  <id>  (15) 
15

>  <inchikey>  (15) 
JHZYBLIEJWESOZ-UHFFFAOYSA-N

>  <alias>  (15) 
m0215b

>  <smiles>  (15) 
O=C(CN1CCCC1=O)Nc1nccs1

>  <path>  (15) 
/opt/xchem-fragalysis-2/maxwin/BulkDock/TARGETS/TRIM21/aligned_files/m0215b/m0215b.pdb

>  <distance_score>  (15) 
None

>  <energy_score>  (15) 
None

>  <compound>  (15) 
JHZYBLIEJWESOZ-UHFFFAOYSA-N

>  <compound_id>  (15) 
12

>  <target>  (15) 
TRIM21

>  <tags>  (15) 
['Main status', 'GOOD count', 'hits', 'BAD count', '[Other] upload_1 2025-03-17', 'MEDIOCRE count', 'iter1_hits']

>  <inspirations>  (15) 
None

>  <subsites>  (15) 
None

>  <reference>  (15) 


>  <observation_longname>  (15) 
TRIM21-x0215_B_302_v1

>  <ConformerSites alias>  (15) 
6a - m0215/B/302

>  <CanonSites alias>  (15) 
6 - m0215/B/302/1

>  <CrystalformSites alias>  (15) 
F1i - m0215/B/302

>  <Quatassemblies alias>  (15) 
A1 - monomer

>  <Crystalforms alias>  (15) 
F1 - xtalform1

>  <ConformerSites upload name>  (15) 
6a - TRIM21-x0215/B/302

>  <CanonSites upload name>  (15) 
6 - TRIM21-x0215/B/302/1

>  <CrystalformSites upload name>  (15) 
F1i - TRIM21-x0215/B/302/1

>  <Quatassemblies upload name>  (15) 
A1 - monomer

>  <Crystalforms upload name>  (15) 
F1 - xtalform1

>  <ConformerSites short tag>  (15) 
6a - m0215/B/302

>  <CanonSites short tag>  (15) 
6 - m0215/B/302/1

>  <CrystalformSites short tag>  (15) 
F1i - m0215/B/302

>  <Quatassemblies short tag>  (15) 
A1 - monomer

>  <Crystalforms short tag>  (15) 
F1 - xtalform1

>  <Centroid res>  (15) 
TRIM21-x0215/B/168/B_v1

>  <Experiment code>  (15) 
TRIM21-x0215

>  <Pose>  (15) 
m0215b

>  <exports>  (15) 
/opt/xchem-fragalysis-2/maxwin/TRIM21_FFF/knitwork/iter1/iter1_hits.sdf

$$$$
m0219a
     RDKit          3D

 15 15  0  0  0  0  0  0  0  0999 V2000
  -42.2860   -5.8930  -27.9500 C   0  0  0  0  0  0  0  0  0  0  0  0
  -43.5070   -6.1980  -28.8200 C   0  0  0  0  0  0  0  0  0  0  0  0
  -46.0160   -5.8690  -29.4120 C   0  0  0  0  0  0  0  0  0  0  0  0
  -47.2970   -6.0840  -28.6120 C   0  0  0  0  0  0  0  0  0  0  0  0
  -47.5280   -5.0370  -27.5980 C   0  0  0  0  0  0  0  0  0  0  0  0
  -46.3610   -4.8320  -26.7060 C   0  0  2  0  0  0  0  0  0  0  0  0
  -46.6270   -3.6330  -25.7850 C   0  0  0  0  0  0  0  0  0  0  0  0
  -45.1660   -4.5190  -22.7130 C   0  0  0  0  0  0  0  0  0  0  0  0
  -45.1010   -4.5690  -27.5110 C   0  0  0  0  0  0  0  0  0  0  0  0
  -44.8030   -5.5860  -28.5730 N   0  0  0  0  0  0  0  0  0  0  0  0
  -45.4220   -3.0390  -25.1910 N   0  0  0  0  0  0  0  0  0  0  0  0
  -43.4090   -6.9830  -29.7030 O   0  0  0  0  0  0  0  0  0  0  0  0
  -44.0180   -2.1930  -23.1240 O   0  0  0  0  0  0  0  0  0  0  0  0
  -46.3190   -2.1590  -22.8540 O   0  0  0  0  0  0  0  0  0  0  0  0
  -45.2320   -2.9190  -23.4960 S   0  0  2  0  0  0  0  0  0  0  0  0
  2  1  1  0
  4  3  1  0
  5  4  1  0
  6  5  1  0
  6  7  1  1
  9  6  1  0
 10  3  1  0
 10  9  1  0
 10  2  1  0
 11  7  1  0
 12  2  2  0
 15 14  2  0
 15 13  2  0
 15 11  1  0
 15  8  1  1
M  END
>  <id>  (16) 
16

>  <inchikey>  (16) 
CCRQXLDMMWNHIR-SECBINFHSA-N

>  <alias>  (16) 
m0219a

>  <smiles>  (16) 
CC(=O)N1CCC[C@H](CNS(C)(=O)=O)C1

>  <path>  (16) 
/opt/xchem-fragalysis-2/maxwin/BulkDock/TARGETS/TRIM21/aligned_files/m0219a/m0219a.pdb

>  <distance_score>  (16) 
None

>  <energy_score>  (16) 
None

>  <compound>  (16) 
CCRQXLDMMWNHIR-UHFFFAOYSA-N

>  <compound_id>  (16) 
13

>  <target>  (16) 
TRIM21

>  <tags>  (16) 
['Main status', 'GOOD count', 'hits', 'BAD count', '[Other] upload_1 2025-03-17', 'MEDIOCRE count', 'iter1_hits']

>  <inspirations>  (16) 
None

>  <subsites>  (16) 
None

>  <reference>  (16) 


>  <observation_longname>  (16) 
TRIM21-x0219_B_302_v1

>  <ConformerSites alias>  (16) 
1a - m0031/B/401

>  <CanonSites alias>  (16) 
1 - m0031/B/401/1

>  <CrystalformSites alias>  (16) 
F1c - m0611/B/301

>  <Quatassemblies alias>  (16) 
A1 - monomer

>  <Crystalforms alias>  (16) 
F1 - xtalform1

>  <ConformerSites upload name>  (16) 
1a - TRIM21-x0031/B/401

>  <CanonSites upload name>  (16) 
1 - TRIM21-x0031/B/401/1

>  <CrystalformSites upload name>  (16) 
F1c - TRIM21-x0611/B/301/1

>  <Quatassemblies upload name>  (16) 
A1 - monomer

>  <Crystalforms upload name>  (16) 
F1 - xtalform1

>  <ConformerSites short tag>  (16) 
1a - m0031/B/401

>  <CanonSites short tag>  (16) 
1 - m0031/B/401/1

>  <CrystalformSites short tag>  (16) 
F1c - m0611/B/301

>  <Quatassemblies short tag>  (16) 
A1 - monomer

>  <Crystalforms short tag>  (16) 
F1 - xtalform1

>  <Centroid res>  (16) 
TRIM21-x0031/B/39/B_v1

>  <Experiment code>  (16) 
TRIM21-x0219

>  <Pose>  (16) 
m0219a

>  <exports>  (16) 
/opt/xchem-fragalysis-2/maxwin/TRIM21_FFF/knitwork/iter1/iter1_hits.sdf

$$$$
m0225a
     RDKit          3D

 15 17  0  0  0  0  0  0  0  0999 V2000
  -26.3800  -27.9160  -23.1230 C   0  0  0  0  0  0  0  0  0  0  0  0
  -28.2150  -30.9450  -24.3660 C   0  0  0  0  0  0  0  0  0  0  0  0
  -27.4180  -30.1730  -23.5720 C   0  0  0  0  0  0  0  0  0  0  0  0
  -25.4050  -27.4470  -20.8950 C   0  0  1  0  0  0  0  0  0  0  0  0
  -25.5140  -25.9730  -20.7010 C   0  0  0  0  0  0  0  0  0  0  0  0
  -25.8480  -26.8940  -19.5840 C   0  0  0  0  0  0  0  0  0  0  0  0
  -27.2250  -28.8330  -23.9590 C   0  0  0  0  0  0  0  0  0  0  0  0
  -27.8270  -28.3530  -25.1130 C   0  0  0  0  0  0  0  0  0  0  0  0
  -28.6390  -29.1610  -25.9090 C   0  0  0  0  0  0  0  0  0  0  0  0
  -28.8150  -30.4530  -25.5070 C   0  0  0  0  0  0  0  0  0  0  0  0
  -29.3350  -32.6250  -25.3420 C   0  0  0  0  0  0  0  0  0  0  0  0
  -26.3780  -28.0930  -21.7650 N   0  0  0  0  0  0  0  0  0  0  0  0
  -25.7440  -27.0120  -23.6640 O   0  0  0  0  0  0  0  0  0  0  0  0
  -29.5690  -31.4400  -26.1070 O   0  0  0  0  0  0  0  0  0  0  0  0
  -28.5610  -32.2700  -24.1950 O   0  0  0  0  0  0  0  0  0  0  0  0
  3  2  2  0
  5  4  1  0
  6  4  1  0
  6  5  1  0
  7  3  1  0
  7  1  1  0
  8  7  2  0
  9  8  1  0
 10  9  2  0
 10  2  1  0
 12  1  1  0
  4 12  1  6
 13  1  2  0
 14 11  1  0
 14 10  1  0
 15 11  1  0
 15  2  1  0
M  END
>  <id>  (17) 
17

>  <inchikey>  (17) 
OUGQMSXIPFSZBI-UHFFFAOYSA-N

>  <alias>  (17) 
m0225a

>  <smiles>  (17) 
O=C(NC1CC1)c1ccc2c(c1)OCO2

>  <path>  (17) 
/opt/xchem-fragalysis-2/maxwin/BulkDock/TARGETS/TRIM21/aligned_files/m0225a/m0225a.pdb

>  <distance_score>  (17) 
None

>  <energy_score>  (17) 
None

>  <compound>  (17) 
OUGQMSXIPFSZBI-UHFFFAOYSA-N

>  <compound_id>  (17) 
14

>  <target>  (17) 
TRIM21

>  <tags>  (17) 
['Main status', 'GOOD count', 'hits', 'BAD count', '[Other] upload_1 2025-03-17', 'MEDIOCRE count', 'iter1_hits']

>  <inspirations>  (17) 
None

>  <subsites>  (17) 
None

>  <reference>  (17) 


>  <observation_longname>  (17) 
TRIM21-x0225_B_401_v1

>  <ConformerSites alias>  (17) 
3a - m0176/B/302

>  <CanonSites alias>  (17) 
3 - m0176/B/302/1

>  <CrystalformSites alias>  (17) 
F1e - m0176/B/302

>  <Quatassemblies alias>  (17) 
A1 - monomer

>  <Crystalforms alias>  (17) 
F1 - xtalform1

>  <ConformerSites upload name>  (17) 
3a - TRIM21-x0176/B/302

>  <CanonSites upload name>  (17) 
3 - TRIM21-x0176/B/302/1

>  <CrystalformSites upload name>  (17) 
F1e - TRIM21-x0176/B/302/1

>  <Quatassemblies upload name>  (17) 
A1 - monomer

>  <Crystalforms upload name>  (17) 
F1 - xtalform1

>  <ConformerSites short tag>  (17) 
3a - m0176/B/302

>  <CanonSites short tag>  (17) 
3 - m0176/B/302/1

>  <CrystalformSites short tag>  (17) 
F1e - m0176/B/302

>  <Quatassemblies short tag>  (17) 
A1 - monomer

>  <Crystalforms short tag>  (17) 
F1 - xtalform1

>  <Centroid res>  (17) 
TRIM21-x0176/B/101/B_v1

>  <Experiment code>  (17) 
TRIM21-x0225

>  <Pose>  (17) 
m0225a

>  <exports>  (17) 
/opt/xchem-fragalysis-2/maxwin/TRIM21_FFF/knitwork/iter1/iter1_hits.sdf

$$$$
m0238a
     RDKit          3D

 14 14  0  0  0  0  0  0  0  0999 V2000
  -43.4240   -5.9790  -30.1620 C   0  0  0  0  0  0  0  0  0  0  0  0
  -47.3740   -5.5470  -27.8780 C   0  0  0  0  0  0  0  0  0  0  0  0
  -44.2810   -8.1190  -29.2580 C   0  0  0  0  0  0  0  0  0  0  0  0
  -45.1940   -5.9880  -28.4670 C   0  0  0  0  0  0  0  0  0  0  0  0
  -44.7300   -5.1070  -27.4700 C   0  0  0  0  0  0  0  0  0  0  0  0
  -45.6450   -4.4470  -26.6640 C   0  0  0  0  0  0  0  0  0  0  0  0
  -45.1500   -3.4970  -25.6000 C   0  0  0  0  0  0  0  0  0  0  0  0
  -45.4990   -3.0700  -23.2240 C   0  0  0  0  0  0  0  0  0  0  0  0
  -46.4400   -2.3590  -22.3070 C   0  0  0  0  0  0  0  0  0  0  0  0
  -46.9930   -4.6740  -26.8810 C   0  0  0  0  0  0  0  0  0  0  0  0
  -44.3350   -6.6660  -29.2640 N   0  0  0  0  0  0  0  0  0  0  0  0
  -45.9960   -3.3870  -24.4210 N   0  0  0  0  0  0  0  0  0  0  0  0
  -46.5150   -6.2040  -28.6640 N   0  0  0  0  0  0  0  0  0  0  0  0
  -44.3350   -3.3060  -22.8960 O   0  0  0  0  0  0  0  0  0  0  0  0
  5  4  1  0
  6  5  2  0
  7  6  1  0
  9  8  1  0
 10  2  2  0
 10  6  1  0
 11  4  1  0
 11  3  1  0
 11  1  1  0
 12  8  1  0
 12  7  1  0
 13  4  2  0
 13  2  1  0
 14  8  2  0
M  END
>  <id>  (18) 
18

>  <inchikey>  (18) 
BKIVWGJUNJZCKF-UHFFFAOYSA-N

>  <alias>  (18) 
m0238a

>  <smiles>  (18) 
CC(=O)NCc1ccnc(N(C)C)c1

>  <path>  (18) 
/opt/xchem-fragalysis-2/maxwin/BulkDock/TARGETS/TRIM21/aligned_files/m0238a/m0238a.pdb

>  <distance_score>  (18) 
None

>  <energy_score>  (18) 
None

>  <compound>  (18) 
BKIVWGJUNJZCKF-UHFFFAOYSA-N

>  <compound_id>  (18) 
15

>  <target>  (18) 
TRIM21

>  <tags>  (18) 
['Main status', 'GOOD count', 'hits', 'BAD count', '[Other] upload_1 2025-03-17', 'MEDIOCRE count', 'iter1_hits']

>  <inspirations>  (18) 
None

>  <subsites>  (18) 
None

>  <reference>  (18) 


>  <observation_longname>  (18) 
TRIM21-x0238_B_201_v1

>  <ConformerSites alias>  (18) 
1a - m0031/B/401

>  <CanonSites alias>  (18) 
1 - m0031/B/401/1

>  <CrystalformSites alias>  (18) 
F1c - m0611/B/301

>  <Quatassemblies alias>  (18) 
A1 - monomer

>  <Crystalforms alias>  (18) 
F1 - xtalform1

>  <ConformerSites upload name>  (18) 
1a - TRIM21-x0031/B/401

>  <CanonSites upload name>  (18) 
1 - TRIM21-x0031/B/401/1

>  <CrystalformSites upload name>  (18) 
F1c - TRIM21-x0611/B/301/1

>  <Quatassemblies upload name>  (18) 
A1 - monomer

>  <Crystalforms upload name>  (18) 
F1 - xtalform1

>  <ConformerSites short tag>  (18) 
1a - m0031/B/401

>  <CanonSites short tag>  (18) 
1 - m0031/B/401/1

>  <CrystalformSites short tag>  (18) 
F1c - m0611/B/301

>  <Quatassemblies short tag>  (18) 
A1 - monomer

>  <Crystalforms short tag>  (18) 
F1 - xtalform1

>  <Centroid res>  (18) 
TRIM21-x0031/B/39/B_v1

>  <Experiment code>  (18) 
TRIM21-x0238

>  <Pose>  (18) 
m0238a

>  <exports>  (18) 
/opt/xchem-fragalysis-2/maxwin/TRIM21_FFF/knitwork/iter1/iter1_hits.sdf

$$$$
m0243a
     RDKit          3D

 14 14  0  0  0  0  0  0  0  0999 V2000
  -42.5810   -6.7740  -27.7770 C   0  0  0  0  0  0  0  0  0  0  0  0
  -43.8720   -7.3340  -28.2400 C   0  0  0  0  0  0  0  0  0  0  0  0
  -45.8430   -6.4560  -27.2110 C   0  0  0  0  0  0  0  0  0  0  0  0
  -46.6110   -5.1650  -27.0540 C   0  0  0  0  0  0  0  0  0  0  0  0
  -45.0490   -3.6770  -25.9310 C   0  0  0  0  0  0  0  0  0  0  0  0
  -44.9820   -2.5390  -24.9290 C   0  0  0  0  0  0  0  0  0  0  0  0
  -46.5560   -4.2040  -23.4160 C   0  0  0  0  0  0  0  0  0  0  0  0
  -46.4180   -5.1330  -24.6130 C   0  0  0  0  0  0  0  0  0  0  0  0
  -46.3410   -4.3630  -25.8590 N   0  0  0  0  0  0  0  0  0  0  0  0
  -44.8970   -6.3040  -28.1400 O   0  0  0  0  0  0  0  0  0  0  0  0
  -46.0840   -7.4660  -26.6160 O   0  0  0  0  0  0  0  0  0  0  0  0
  -45.4190   -2.0660  -22.3800 O   0  0  0  0  0  0  0  0  0  0  0  0
  -43.9870   -3.9680  -22.9530 O   0  0  0  0  0  0  0  0  0  0  0  0
  -45.1280   -3.1620  -23.2630 S   0  0  2  0  0  0  0  0  0  0  0  0
  2  1  1  0
  4  3  1  0
  6  5  1  0
  8  7  1  0
  9  8  1  0
  9  5  1  0
  9  4  1  0
 10  2  1  0
 10  3  1  0
 11  3  2  0
 14 13  2  0
 14 12  2  0
 14  7  1  6
 14  6  1  0
M  END
>  <id>  (19) 
19

>  <inchikey>  (19) 
KWVBKMSCALADDC-UHFFFAOYSA-N

>  <alias>  (19) 
m0243a

>  <smiles>  (19) 
CCOC(=O)CN1CCS(=O)(=O)CC1

>  <path>  (19) 
/opt/xchem-fragalysis-2/maxwin/BulkDock/TARGETS/TRIM21/aligned_files/m0243a/m0243a.pdb

>  <distance_score>  (19) 
None

>  <energy_score>  (19) 
None

>  <compound>  (19) 
KWVBKMSCALADDC-UHFFFAOYSA-N

>  <compound_id>  (19) 
16

>  <target>  (19) 
TRIM21

>  <tags>  (19) 
['Main status', 'GOOD count', 'hits', 'BAD count', '[Other] upload_1 2025-03-17', 'MEDIOCRE count', 'iter1_hits']

>  <inspirations>  (19) 
None

>  <subsites>  (19) 
None

>  <reference>  (19) 


>  <observation_longname>  (19) 
TRIM21-x0243_B_201_v1

>  <ConformerSites alias>  (19) 
1a - m0031/B/401

>  <CanonSites alias>  (19) 
1 - m0031/B/401/1

>  <CrystalformSites alias>  (19) 
F1c - m0611/B/301

>  <Quatassemblies alias>  (19) 
A1 - monomer

>  <Crystalforms alias>  (19) 
F1 - xtalform1

>  <ConformerSites upload name>  (19) 
1a - TRIM21-x0031/B/401

>  <CanonSites upload name>  (19) 
1 - TRIM21-x0031/B/401/1

>  <CrystalformSites upload name>  (19) 
F1c - TRIM21-x0611/B/301/1

>  <Quatassemblies upload name>  (19) 
A1 - monomer

>  <Crystalforms upload name>  (19) 
F1 - xtalform1

>  <ConformerSites short tag>  (19) 
1a - m0031/B/401

>  <CanonSites short tag>  (19) 
1 - m0031/B/401/1

>  <CrystalformSites short tag>  (19) 
F1c - m0611/B/301

>  <Quatassemblies short tag>  (19) 
A1 - monomer

>  <Crystalforms short tag>  (19) 
F1 - xtalform1

>  <Centroid res>  (19) 
TRIM21-x0031/B/39/B_v1

>  <Experiment code>  (19) 
TRIM21-x0243

>  <Pose>  (19) 
m0243a

>  <exports>  (19) 
/opt/xchem-fragalysis-2/maxwin/TRIM21_FFF/knitwork/iter1/iter1_hits.sdf

$$$$
m0248a
     RDKit          3D

 18 19  0  0  0  0  0  0  0  0999 V2000
  -45.1550   -9.0520  -26.2270 C   0  0  0  0  0  0  0  0  0  0  0  0
  -47.0340   -2.9210  -24.9520 C   0  0  0  0  0  0  0  0  0  0  0  0
  -47.2020   -1.8370  -23.8890 C   0  0  2  0  0  0  0  0  0  0  0  0
  -46.6130   -2.3630  -22.5800 C   0  0  0  0  0  0  0  0  0  0  0  0
  -45.1540   -2.7310  -22.7620 C   0  0  0  0  0  0  0  0  0  0  0  0
  -48.6550   -1.3980  -23.7480 C   0  0  0  0  0  0  0  0  0  0  0  0
  -44.3970   -7.7540  -26.0990 C   0  0  0  0  0  0  0  0  0  0  0  0
  -43.4590   -7.3760  -27.0430 C   0  0  0  0  0  0  0  0  0  0  0  0
  -42.7680   -6.1820  -26.9380 C   0  0  0  0  0  0  0  0  0  0  0  0
  -43.0140   -5.3290  -25.8780 C   0  0  0  0  0  0  0  0  0  0  0  0
  -43.9530   -5.6700  -24.9160 C   0  0  0  0  0  0  0  0  0  0  0  0
  -44.6380   -6.8840  -25.0410 C   0  0  0  0  0  0  0  0  0  0  0  0
  -44.2060   -4.7680  -23.7410 C   0  0  0  0  0  0  0  0  0  0  0  0
  -45.5680   -3.2380  -25.1410 C   0  0  0  0  0  0  0  0  0  0  0  0
  -44.9580   -3.6650  -23.8770 N   0  0  0  0  0  0  0  0  0  0  0  0
  -49.2930   -1.7400  -22.6310 N   0  0  0  0  0  0  0  0  0  0  0  0
  -43.6750   -5.0530  -22.6760 O   0  0  0  0  0  0  0  0  0  0  0  0
  -49.1990   -0.7250  -24.6340 O   0  0  0  0  0  0  0  0  0  0  0  0
  3  2  1  0
  4  3  1  0
  5  4  1  0
  3  6  1  1
  7  1  1  0
  8  7  2  0
  9  8  1  0
 10  9  2  0
 11 10  1  0
 12 11  2  0
 12  7  1  0
 13 11  1  0
 14  2  1  0
 15 14  1  0
 15 13  1  0
 15  5  1  0
 16  6  1  0
 17 13  2  0
 18  6  2  0
M  END
>  <id>  (20) 
20

>  <inchikey>  (20) 
VSYPROQBASLXDK-UHFFFAOYSA-N

>  <alias>  (20) 
m0248a

>  <smiles>  (20) 
Cc1cccc(C(=O)N2CCC(C(N)=O)CC2)c1

>  <path>  (20) 
/opt/xchem-fragalysis-2/maxwin/BulkDock/TARGETS/TRIM21/aligned_files/m0248a/m0248a.pdb

>  <distance_score>  (20) 
None

>  <energy_score>  (20) 
None

>  <compound>  (20) 
VSYPROQBASLXDK-UHFFFAOYSA-N

>  <compound_id>  (20) 
17

>  <target>  (20) 
TRIM21

>  <tags>  (20) 
['Main status', 'GOOD count', 'hits', 'BAD count', '[Other] upload_1 2025-03-17', 'MEDIOCRE count', 'iter1_hits']

>  <inspirations>  (20) 
None

>  <subsites>  (20) 
None

>  <reference>  (20) 


>  <observation_longname>  (20) 
TRIM21-x0248_B_201_v1

>  <ConformerSites alias>  (20) 
1a - m0031/B/401

>  <CanonSites alias>  (20) 
1 - m0031/B/401/1

>  <CrystalformSites alias>  (20) 
F1c - m0611/B/301

>  <Quatassemblies alias>  (20) 
A1 - monomer

>  <Crystalforms alias>  (20) 
F1 - xtalform1

>  <ConformerSites upload name>  (20) 
1a - TRIM21-x0031/B/401

>  <CanonSites upload name>  (20) 
1 - TRIM21-x0031/B/401/1

>  <CrystalformSites upload name>  (20) 
F1c - TRIM21-x0611/B/301/1

>  <Quatassemblies upload name>  (20) 
A1 - monomer

>  <Crystalforms upload name>  (20) 
F1 - xtalform1

>  <ConformerSites short tag>  (20) 
1a - m0031/B/401

>  <CanonSites short tag>  (20) 
1 - m0031/B/401/1

>  <CrystalformSites short tag>  (20) 
F1c - m0611/B/301

>  <Quatassemblies short tag>  (20) 
A1 - monomer

>  <Crystalforms short tag>  (20) 
F1 - xtalform1

>  <Centroid res>  (20) 
TRIM21-x0031/B/39/B_v1

>  <Experiment code>  (20) 
TRIM21-x0248

>  <Pose>  (20) 
m0248a

>  <exports>  (20) 
/opt/xchem-fragalysis-2/maxwin/TRIM21_FFF/knitwork/iter1/iter1_hits.sdf

$$$$
m0266a
     RDKit          3D

 13 14  0  0  0  0  0  0  0  0999 V2000
  -29.5840  -30.1110  -20.8670 C   0  0  0  0  0  0  0  0  0  0  0  0
  -28.6490  -29.3050  -22.9460 C   0  0  0  0  0  0  0  0  0  0  0  0
  -29.6580  -29.8730  -23.7180 C   0  0  0  0  0  0  0  0  0  0  0  0
  -29.5960  -29.8030  -25.0900 C   0  0  0  0  0  0  0  0  0  0  0  0
  -28.5500  -29.1640  -25.7120 C   0  0  0  0  0  0  0  0  0  0  0  0
  -27.5420  -28.5940  -24.9670 C   0  0  0  0  0  0  0  0  0  0  0  0
  -27.5630  -28.6680  -23.5740 C   0  0  0  0  0  0  0  0  0  0  0  0
  -26.4900  -28.0260  -22.8220 C   0  0  0  0  0  0  0  0  0  0  0  0
  -25.2560  -27.6170  -21.0870 C   0  0  0  0  0  0  0  0  0  0  0  0
  -25.6670  -27.0980  -23.1620 N   0  0  0  0  0  0  0  0  0  0  0  0
  -24.8870  -26.8320  -22.0090 N   0  0  0  0  0  0  0  0  0  0  0  0
  -28.6230  -29.3290  -21.5740 O   0  0  0  0  0  0  0  0  0  0  0  0
  -26.2760  -28.3900  -21.5220 O   0  0  0  0  0  0  0  0  0  0  0  0
  3  2  2  0
  4  3  1  0
  5  4  2  0
  6  5  1  0
  7  6  2  0
  7  2  1  0
  8  7  1  0
 10  8  2  0
 11  9  2  0
 11 10  1  0
 12  2  1  0
 12  1  1  0
 13  8  1  0
 13  9  1  0
M  END
>  <id>  (21) 
21

>  <inchikey>  (21) 
CMZBFAJLBDAJMC-UHFFFAOYSA-N

>  <alias>  (21) 
m0266a

>  <smiles>  (21) 
COc1ccccc1-c1nnco1

>  <path>  (21) 
/opt/xchem-fragalysis-2/maxwin/BulkDock/TARGETS/TRIM21/aligned_files/m0266a/m0266a.pdb

>  <distance_score>  (21) 
None

>  <energy_score>  (21) 
None

>  <compound>  (21) 
CMZBFAJLBDAJMC-UHFFFAOYSA-N

>  <compound_id>  (21) 
18

>  <target>  (21) 
TRIM21

>  <tags>  (21) 
['Main status', 'GOOD count', 'hits', 'BAD count', '[Other] upload_1 2025-03-17', 'MEDIOCRE count', 'iter1_hits']

>  <inspirations>  (21) 
None

>  <subsites>  (21) 
None

>  <reference>  (21) 


>  <observation_longname>  (21) 
TRIM21-x0266_B_302_v1

>  <ConformerSites alias>  (21) 
3a - m0176/B/302

>  <CanonSites alias>  (21) 
3 - m0176/B/302/1

>  <CrystalformSites alias>  (21) 
F1e - m0176/B/302

>  <Quatassemblies alias>  (21) 
A1 - monomer

>  <Crystalforms alias>  (21) 
F1 - xtalform1

>  <ConformerSites upload name>  (21) 
3a - TRIM21-x0176/B/302

>  <CanonSites upload name>  (21) 
3 - TRIM21-x0176/B/302/1

>  <CrystalformSites upload name>  (21) 
F1e - TRIM21-x0176/B/302/1

>  <Quatassemblies upload name>  (21) 
A1 - monomer

>  <Crystalforms upload name>  (21) 
F1 - xtalform1

>  <ConformerSites short tag>  (21) 
3a - m0176/B/302

>  <CanonSites short tag>  (21) 
3 - m0176/B/302/1

>  <CrystalformSites short tag>  (21) 
F1e - m0176/B/302

>  <Quatassemblies short tag>  (21) 
A1 - monomer

>  <Crystalforms short tag>  (21) 
F1 - xtalform1

>  <Centroid res>  (21) 
TRIM21-x0176/B/101/B_v1

>  <Experiment code>  (21) 
TRIM21-x0266

>  <Pose>  (21) 
m0266a

>  <exports>  (21) 
/opt/xchem-fragalysis-2/maxwin/TRIM21_FFF/knitwork/iter1/iter1_hits.sdf

$$$$
m0269a
     RDKit          3D

 13 13  0  0  0  0  0  0  0  0999 V2000
  -46.7420   -4.5200  -26.5450 C   0  0  0  0  0  0  0  0  0  0  0  0
  -45.4480   -4.7610  -25.7690 C   0  0  2  0  0  0  0  0  0  0  0  0
  -44.8550   -3.4290  -25.2700 C   0  0  0  0  0  0  0  0  0  0  0  0
  -44.4740   -5.5970  -26.5840 C   0  0  0  0  0  0  0  0  0  0  0  0
  -44.4100   -6.9750  -26.4000 C   0  0  0  0  0  0  0  0  0  0  0  0
  -43.5310   -7.7480  -27.1470 C   0  0  0  0  0  0  0  0  0  0  0  0
  -42.7230   -7.1640  -28.0950 C   0  0  0  0  0  0  0  0  0  0  0  0
  -42.7750   -5.8060  -28.2940 C   0  0  0  0  0  0  0  0  0  0  0  0
  -43.6470   -5.0230  -27.5500 C   0  0  0  0  0  0  0  0  0  0  0  0
  -44.0560   -1.9500  -23.1470 N   0  0  0  0  0  0  0  0  0  0  0  0
  -43.8230   -4.3710  -23.0870 O   0  0  0  0  0  0  0  0  0  0  0  0
  -46.0600   -3.3310  -22.9630 O   0  0  0  0  0  0  0  0  0  0  0  0
  -44.7340   -3.3500  -23.4980 S   0  0  2  0  0  0  0  0  0  0  0  0
  2  1  1  6
  3  2  1  0
  4  2  1  0
  5  4  2  0
  6  5  1  0
  7  6  2  0
  8  7  1  0
  9  4  1  0
  9  8  2  0
 13 12  2  0
 13 11  2  0
 13 10  1  6
 13  3  1  0
M  END
>  <id>  (22) 
22

>  <inchikey>  (22) 
HXLOQIXEAPZOSG-MRVPVSSYSA-N

>  <alias>  (22) 
m0269a

>  <smiles>  (22) 
C[C@H](CS(N)(=O)=O)c1ccccc1

>  <path>  (22) 
/opt/xchem-fragalysis-2/maxwin/BulkDock/TARGETS/TRIM21/aligned_files/m0269a/m0269a.pdb

>  <distance_score>  (22) 
None

>  <energy_score>  (22) 
None

>  <compound>  (22) 
HXLOQIXEAPZOSG-UHFFFAOYSA-N

>  <compound_id>  (22) 
19

>  <target>  (22) 
TRIM21

>  <tags>  (22) 
['Main status', 'GOOD count', 'hits', 'BAD count', '[Other] upload_1 2025-03-17', 'MEDIOCRE count', 'iter1_hits']

>  <inspirations>  (22) 
None

>  <subsites>  (22) 
None

>  <reference>  (22) 


>  <observation_longname>  (22) 
TRIM21-x0269_B_302_v1

>  <ConformerSites alias>  (22) 
1a - m0031/B/401

>  <CanonSites alias>  (22) 
1 - m0031/B/401/1

>  <CrystalformSites alias>  (22) 
F1c - m0611/B/301

>  <Quatassemblies alias>  (22) 
A1 - monomer

>  <Crystalforms alias>  (22) 
F1 - xtalform1

>  <ConformerSites upload name>  (22) 
1a - TRIM21-x0031/B/401

>  <CanonSites upload name>  (22) 
1 - TRIM21-x0031/B/401/1

>  <CrystalformSites upload name>  (22) 
F1c - TRIM21-x0611/B/301/1

>  <Quatassemblies upload name>  (22) 
A1 - monomer

>  <Crystalforms upload name>  (22) 
F1 - xtalform1

>  <ConformerSites short tag>  (22) 
1a - m0031/B/401

>  <CanonSites short tag>  (22) 
1 - m0031/B/401/1

>  <CrystalformSites short tag>  (22) 
F1c - m0611/B/301

>  <Quatassemblies short tag>  (22) 
A1 - monomer

>  <Crystalforms short tag>  (22) 
F1 - xtalform1

>  <Centroid res>  (22) 
TRIM21-x0031/B/39/B_v1

>  <Experiment code>  (22) 
TRIM21-x0269

>  <Pose>  (22) 
m0269a

>  <exports>  (22) 
/opt/xchem-fragalysis-2/maxwin/TRIM21_FFF/knitwork/iter1/iter1_hits.sdf

$$$$
m0286a
     RDKit          3D

 14 15  0  0  0  0  0  0  0  0999 V2000
  -42.7340  -19.2280  -23.3380 C   0  0  0  0  0  0  0  0  0  0  0  0
  -38.7400  -16.5130  -23.9610 C   0  0  0  0  0  0  0  0  0  0  0  0
  -42.3730  -17.9120  -22.7110 C   0  0  0  0  0  0  0  0  0  0  0  0
  -41.0490  -15.8470  -23.1730 C   0  0  0  0  0  0  0  0  0  0  0  0
  -41.9720  -14.8770  -22.7280 C   0  0  0  0  0  0  0  0  0  0  0  0
  -41.5290  -13.5900  -22.6210 C   0  0  0  0  0  0  0  0  0  0  0  0
  -41.2290  -11.4780  -22.0270 C   0  0  0  0  0  0  0  0  0  0  0  0
  -40.2280  -13.2350  -22.9210 C   0  0  0  0  0  0  0  0  0  0  0  0
  -39.3180  -14.1560  -23.3550 C   0  0  0  0  0  0  0  0  0  0  0  0
  -39.7320  -15.4880  -23.4840 C   0  0  0  0  0  0  0  0  0  0  0  0
  -41.4330  -17.2010  -23.3740 N   0  0  0  0  0  0  0  0  0  0  0  0
  -42.8930  -17.5290  -21.6710 O   0  0  0  0  0  0  0  0  0  0  0  0
  -42.2310  -12.4770  -22.2390 O   0  0  0  0  0  0  0  0  0  0  0  0
  -40.0420  -11.8850  -22.7110 O   0  0  0  0  0  0  0  0  0  0  0  0
  3  1  1  0
  5  4  2  0
  6  5  1  0
  8  6  2  0
  9  8  1  0
 10  2  1  0
 10  9  2  0
 10  4  1  0
 11  3  1  0
 11  4  1  0
 12  3  2  0
 13  7  1  0
 13  6  1  0
 14  8  1  0
 14  7  1  0
M  END
>  <id>  (23) 
23

>  <inchikey>  (23) 
AQEGZDFRJZQYSE-UHFFFAOYSA-N

>  <alias>  (23) 
m0286a

>  <smiles>  (23) 
CC(=O)Nc1cc2c(cc1C)OCO2

>  <path>  (23) 
/opt/xchem-fragalysis-2/maxwin/BulkDock/TARGETS/TRIM21/aligned_files/m0286a/m0286a.pdb

>  <distance_score>  (23) 
None

>  <energy_score>  (23) 
None

>  <compound>  (23) 
AQEGZDFRJZQYSE-UHFFFAOYSA-N

>  <compound_id>  (23) 
20

>  <target>  (23) 
TRIM21

>  <tags>  (23) 
['Main status', 'GOOD count', 'hits', 'BAD count', '[Other] upload_1 2025-03-17', 'MEDIOCRE count', 'iter1_hits']

>  <inspirations>  (23) 
None

>  <subsites>  (23) 
None

>  <reference>  (23) 


>  <observation_longname>  (23) 
TRIM21-x0286_B_302_v1

>  <ConformerSites alias>  (23) 
2a - m0043/B/302

>  <CanonSites alias>  (23) 
2 - m0043/B/302/1

>  <CrystalformSites alias>  (23) 
F1d - m0043/B/302

>  <Quatassemblies alias>  (23) 
A1 - monomer

>  <Crystalforms alias>  (23) 
F1 - xtalform1

>  <ConformerSites upload name>  (23) 
2a - TRIM21-x0043/B/302

>  <CanonSites upload name>  (23) 
2 - TRIM21-x0043/B/302/1

>  <CrystalformSites upload name>  (23) 
F1d - TRIM21-x0043/B/302/1

>  <Quatassemblies upload name>  (23) 
A1 - monomer

>  <Crystalforms upload name>  (23) 
F1 - xtalform1

>  <ConformerSites short tag>  (23) 
2a - m0043/B/302

>  <CanonSites short tag>  (23) 
2 - m0043/B/302/1

>  <CrystalformSites short tag>  (23) 
F1d - m0043/B/302

>  <Quatassemblies short tag>  (23) 
A1 - monomer

>  <Crystalforms short tag>  (23) 
F1 - xtalform1

>  <Centroid res>  (23) 
TRIM21-x0043/B/109/B_v1

>  <Experiment code>  (23) 
TRIM21-x0286

>  <Pose>  (23) 
m0286a

>  <exports>  (23) 
/opt/xchem-fragalysis-2/maxwin/TRIM21_FFF/knitwork/iter1/iter1_hits.sdf

$$$$
m0306a
     RDKit          3D

 15 16  0  0  0  0  0  0  0  0999 V2000
  -46.4090   -2.3440  -23.0580 C   0  0  0  0  0  0  0  0  0  0  0  0
  -43.9230   -5.4680  -28.4030 C   0  0  0  0  0  0  0  0  0  0  0  0
  -44.1230   -5.8670  -26.9700 C   0  0  0  0  0  0  0  0  0  0  0  0
  -44.5010   -4.9410  -25.9900 C   0  0  0  0  0  0  0  0  0  0  0  0
  -47.2640   -4.0200  -24.6470 C   0  0  0  0  0  0  0  0  0  0  0  0
  -45.0660   -4.3210  -23.6030 C   0  0  0  0  0  0  0  0  0  0  0  0
  -44.6820   -5.3200  -24.6610 C   0  0  0  0  0  0  0  0  0  0  0  0
  -44.4580   -6.6590  -24.3150 C   0  0  0  0  0  0  0  0  0  0  0  0
  -44.0780   -7.5880  -25.2610 C   0  0  0  0  0  0  0  0  0  0  0  0
  -43.8990   -7.1940  -26.5950 C   0  0  0  0  0  0  0  0  0  0  0  0
  -43.1860   -7.7780  -28.9000 C   0  0  0  0  0  0  0  0  0  0  0  0
  -42.8310   -6.3230  -29.0210 C   0  0  0  0  0  0  0  0  0  0  0  0
  -46.1810   -3.5960  -23.7660 N   0  0  0  0  0  0  0  0  0  0  0  0
  -43.5250   -8.1280  -27.5320 N   0  0  0  0  0  0  0  0  0  0  0  0
  -44.3300   -4.1610  -22.6320 O   0  0  0  0  0  0  0  0  0  0  0  0
  3  2  1  0
  4  3  2  0
  7  6  1  0
  7  4  1  0
  8  7  2  0
  9  8  1  0
 10  9  2  0
 10  3  1  0
 12  2  1  0
 12 11  1  0
 13  6  1  0
 13  5  1  0
 13  1  1  0
 14 10  1  0
 14 11  1  0
 15  6  2  0
M  END
>  <id>  (24) 
24

>  <inchikey>  (24) 
WKHXWPZSIXHQAS-UHFFFAOYSA-N

>  <alias>  (24) 
m0306a

>  <smiles>  (24) 
CN(C)C(=O)c1ccc2c(c1)CCCN2

>  <path>  (24) 
/opt/xchem-fragalysis-2/maxwin/BulkDock/TARGETS/TRIM21/aligned_files/m0306a/m0306a.pdb

>  <distance_score>  (24) 
None

>  <energy_score>  (24) 
None

>  <compound>  (24) 
WKHXWPZSIXHQAS-UHFFFAOYSA-N

>  <compound_id>  (24) 
21

>  <target>  (24) 
TRIM21

>  <tags>  (24) 
['Main status', 'GOOD count', 'hits', 'BAD count', '[Other] upload_1 2025-03-17', 'MEDIOCRE count', 'iter1_hits']

>  <inspirations>  (24) 
None

>  <subsites>  (24) 
None

>  <reference>  (24) 


>  <observation_longname>  (24) 
TRIM21-x0306_B_401_v1

>  <ConformerSites alias>  (24) 
1a - m0031/B/401

>  <CanonSites alias>  (24) 
1 - m0031/B/401/1

>  <CrystalformSites alias>  (24) 
F1c - m0611/B/301

>  <Quatassemblies alias>  (24) 
A1 - monomer

>  <Crystalforms alias>  (24) 
F1 - xtalform1

>  <ConformerSites upload name>  (24) 
1a - TRIM21-x0031/B/401

>  <CanonSites upload name>  (24) 
1 - TRIM21-x0031/B/401/1

>  <CrystalformSites upload name>  (24) 
F1c - TRIM21-x0611/B/301/1

>  <Quatassemblies upload name>  (24) 
A1 - monomer

>  <Crystalforms upload name>  (24) 
F1 - xtalform1

>  <ConformerSites short tag>  (24) 
1a - m0031/B/401

>  <CanonSites short tag>  (24) 
1 - m0031/B/401/1

>  <CrystalformSites short tag>  (24) 
F1c - m0611/B/301

>  <Quatassemblies short tag>  (24) 
A1 - monomer

>  <Crystalforms short tag>  (24) 
F1 - xtalform1

>  <Centroid res>  (24) 
TRIM21-x0031/B/39/B_v1

>  <Experiment code>  (24) 
TRIM21-x0306

>  <Pose>  (24) 
m0306a

>  <exports>  (24) 
/opt/xchem-fragalysis-2/maxwin/TRIM21_FFF/knitwork/iter1/iter1_hits.sdf

$$$$
m0310a
     RDKit          3D

 15 15  0  0  0  0  0  0  0  0999 V2000
  -46.2800  -10.0670  -29.4300 C   0  0  0  0  0  0  0  0  0  0  0  0
  -45.2250   -7.9580  -28.6280 C   0  0  0  0  0  0  0  0  0  0  0  0
  -43.8670   -7.9990  -28.8970 C   0  0  0  0  0  0  0  0  0  0  0  0
  -43.1360   -6.8210  -28.9710 C   0  0  0  0  0  0  0  0  0  0  0  0
  -43.7490   -5.6060  -28.7700 C   0  0  0  0  0  0  0  0  0  0  0  0
  -45.1020   -5.5400  -28.4920 C   0  0  0  0  0  0  0  0  0  0  0  0
  -45.8490   -6.7130  -28.4090 C   0  0  0  0  0  0  0  0  0  0  0  0
  -47.6720   -6.1920  -27.0350 C   0  0  1  0  0  0  0  0  0  0  0  0
  -47.5710   -4.8730  -27.0450 F   0  0  0  0  0  0  0  0  0  0  0  0
  -47.0280   -6.6280  -25.9660 F   0  0  0  0  0  0  0  0  0  0  0  0
  -48.9540   -6.4820  -26.8720 F   0  0  0  0  0  0  0  0  0  0  0  0
  -45.7770   -9.9310  -30.6500 N   0  0  0  0  0  0  0  0  0  0  0  0
  -46.0710   -9.0900  -28.5290 N   0  0  0  0  0  0  0  0  0  0  0  0
  -47.2070   -6.7320  -28.1620 O   0  0  0  0  0  0  0  0  0  0  0  0
  -47.1790  -11.4440  -29.0120 S   0  0  0  0  0  0  0  0  0  0  0  0
  3  2  2  0
  4  3  1  0
  5  4  2  0
  6  5  1  0
  7  6  2  0
  7  2  1  0
  8  9  1  6
 10  8  1  0
 11  8  1  0
 12  1  1  0
 13  2  1  0
 13  1  1  0
 14  7  1  0
 14  8  1  0
 15  1  2  0
M  END
>  <id>  (25) 
25

>  <inchikey>  (25) 
HYKOSRYWIURWQI-UHFFFAOYSA-N

>  <alias>  (25) 
m0310a

>  <smiles>  (25) 
NC(=S)Nc1ccccc1OC(F)(F)F

>  <path>  (25) 
/opt/xchem-fragalysis-2/maxwin/BulkDock/TARGETS/TRIM21/aligned_files/m0310a/m0310a.pdb

>  <distance_score>  (25) 
None

>  <energy_score>  (25) 
None

>  <compound>  (25) 
HYKOSRYWIURWQI-UHFFFAOYSA-N

>  <compound_id>  (25) 
22

>  <target>  (25) 
TRIM21

>  <tags>  (25) 
['Main status', 'GOOD count', 'hits', 'BAD count', '[Other] upload_1 2025-03-17', 'MEDIOCRE count', 'iter1_hits']

>  <inspirations>  (25) 
None

>  <subsites>  (25) 
None

>  <reference>  (25) 


>  <observation_longname>  (25) 
TRIM21-x0310_B_302_v1

>  <ConformerSites alias>  (25) 
1a - m0031/B/401

>  <CanonSites alias>  (25) 
1 - m0031/B/401/1

>  <CrystalformSites alias>  (25) 
F1c - m0611/B/301

>  <Quatassemblies alias>  (25) 
A1 - monomer

>  <Crystalforms alias>  (25) 
F1 - xtalform1

>  <ConformerSites upload name>  (25) 
1a - TRIM21-x0031/B/401

>  <CanonSites upload name>  (25) 
1 - TRIM21-x0031/B/401/1

>  <CrystalformSites upload name>  (25) 
F1c - TRIM21-x0611/B/301/1

>  <Quatassemblies upload name>  (25) 
A1 - monomer

>  <Crystalforms upload name>  (25) 
F1 - xtalform1

>  <ConformerSites short tag>  (25) 
1a - m0031/B/401

>  <CanonSites short tag>  (25) 
1 - m0031/B/401/1

>  <CrystalformSites short tag>  (25) 
F1c - m0611/B/301

>  <Quatassemblies short tag>  (25) 
A1 - monomer

>  <Crystalforms short tag>  (25) 
F1 - xtalform1

>  <Centroid res>  (25) 
TRIM21-x0031/B/39/B_v1

>  <Experiment code>  (25) 
TRIM21-x0310

>  <Pose>  (25) 
m0310a

>  <exports>  (25) 
/opt/xchem-fragalysis-2/maxwin/TRIM21_FFF/knitwork/iter1/iter1_hits.sdf

$$$$
m0322a
     RDKit          3D

 14 15  0  0  0  0  0  0  0  0999 V2000
  -45.6080   -1.6800  -22.8670 C   0  0  0  0  0  0  0  0  0  0  0  0
  -45.0340   -2.9120  -23.4960 C   0  0  0  0  0  0  0  0  0  0  0  0
  -44.9950   -3.2880  -24.8060 C   0  0  0  0  0  0  0  0  0  0  0  0
  -44.0670   -5.3440  -25.9230 C   0  0  0  0  0  0  0  0  0  0  0  0
  -44.4580   -6.6710  -25.8790 C   0  0  0  0  0  0  0  0  0  0  0  0
  -44.1850   -7.5020  -26.9520 C   0  0  0  0  0  0  0  0  0  0  0  0
  -43.5340   -6.9970  -28.0540 C   0  0  0  0  0  0  0  0  0  0  0  0
  -43.1500   -5.6740  -28.1130 C   0  0  0  0  0  0  0  0  0  0  0  0
  -43.4180   -4.8400  -27.0380 C   0  0  0  0  0  0  0  0  0  0  0  0
  -44.3640   -4.4860  -24.8160 N   0  0  0  0  0  0  0  0  0  0  0  0
  -44.0320   -4.8510  -23.5580 N   0  0  0  0  0  0  0  0  0  0  0  0
  -44.4330   -3.8880  -22.7620 N   0  0  0  0  0  0  0  0  0  0  0  0
  -44.6810   -0.6070  -22.8410 O   0  0  0  0  0  0  0  0  0  0  0  0
  -43.2030   -8.0470  -29.4040 Cl  0  0  0  0  0  0  0  0  0  0  0  0
  2  1  1  0
  3  2  2  0
  5  4  2  0
  6  5  1  0
  7  6  2  0
  8  7  1  0
  9  4  1  0
  9  8  2  0
 10  4  1  0
 10  3  1  0
 11 10  1  0
 12 11  2  0
 12  2  1  0
 13  1  1  0
 14  7  1  0
M  END
>  <id>  (26) 
26

>  <inchikey>  (26) 
CAHIFLPAMJOAGI-UHFFFAOYSA-N

>  <alias>  (26) 
m0322a

>  <smiles>  (26) 
OCc1cn(-c2ccc(Cl)cc2)nn1

>  <path>  (26) 
/opt/xchem-fragalysis-2/maxwin/BulkDock/TARGETS/TRIM21/aligned_files/m0322a/m0322a.pdb

>  <distance_score>  (26) 
None

>  <energy_score>  (26) 
None

>  <compound>  (26) 
CAHIFLPAMJOAGI-UHFFFAOYSA-N

>  <compound_id>  (26) 
23

>  <target>  (26) 
TRIM21

>  <tags>  (26) 
['Main status', 'GOOD count', 'hits', 'BAD count', '[Other] upload_1 2025-03-17', 'MEDIOCRE count', 'iter1_hits']

>  <inspirations>  (26) 
None

>  <subsites>  (26) 
None

>  <reference>  (26) 


>  <observation_longname>  (26) 
TRIM21-x0322_B_201_v1

>  <ConformerSites alias>  (26) 
1a - m0031/B/401

>  <CanonSites alias>  (26) 
1 - m0031/B/401/1

>  <CrystalformSites alias>  (26) 
F1c - m0611/B/301

>  <Quatassemblies alias>  (26) 
A1 - monomer

>  <Crystalforms alias>  (26) 
F1 - xtalform1

>  <ConformerSites upload name>  (26) 
1a - TRIM21-x0031/B/401

>  <CanonSites upload name>  (26) 
1 - TRIM21-x0031/B/401/1

>  <CrystalformSites upload name>  (26) 
F1c - TRIM21-x0611/B/301/1

>  <Quatassemblies upload name>  (26) 
A1 - monomer

>  <Crystalforms upload name>  (26) 
F1 - xtalform1

>  <ConformerSites short tag>  (26) 
1a - m0031/B/401

>  <CanonSites short tag>  (26) 
1 - m0031/B/401/1

>  <CrystalformSites short tag>  (26) 
F1c - m0611/B/301

>  <Quatassemblies short tag>  (26) 
A1 - monomer

>  <Crystalforms short tag>  (26) 
F1 - xtalform1

>  <Centroid res>  (26) 
TRIM21-x0031/B/39/B_v1

>  <Experiment code>  (26) 
TRIM21-x0322

>  <Pose>  (26) 
m0322a

>  <exports>  (26) 
/opt/xchem-fragalysis-2/maxwin/TRIM21_FFF/knitwork/iter1/iter1_hits.sdf

$$$$
m0332a
     RDKit          3D

 15 16  0  0  0  0  0  0  0  0999 V2000
  -47.0810   -4.5170  -26.2380 C   0  0  0  0  0  0  0  0  0  0  0  0
  -48.0020  -10.5940  -29.0160 C   0  0  0  0  0  0  0  0  0  0  0  0
  -48.4840   -9.5710  -26.9130 C   0  0  0  0  0  0  0  0  0  0  0  0
  -47.1670   -8.8100  -26.9350 C   0  0  0  0  0  0  0  0  0  0  0  0
  -47.3870   -4.7590  -27.6800 C   0  0  0  0  0  0  0  0  0  0  0  0
  -45.7570   -6.4510  -28.3460 C   0  0  0  0  0  0  0  0  0  0  0  0
  -44.7310   -5.5490  -28.5880 C   0  0  0  0  0  0  0  0  0  0  0  0
  -43.4880   -5.9990  -28.9820 C   0  0  0  0  0  0  0  0  0  0  0  0
  -43.2350   -7.3460  -29.1410 C   0  0  0  0  0  0  0  0  0  0  0  0
  -44.2530   -8.2680  -28.9160 C   0  0  0  0  0  0  0  0  0  0  0  0
  -45.5200   -7.8310  -28.5330 C   0  0  0  0  0  0  0  0  0  0  0  0
  -46.6060  -10.0100  -29.0470 C   0  0  0  0  0  0  0  0  0  0  0  0
  -46.5180   -8.7780  -28.2530 N   0  0  0  0  0  0  0  0  0  0  0  0
  -48.4010  -10.8440  -27.6340 N   0  0  0  0  0  0  0  0  0  0  0  0
  -47.0300   -6.1170  -27.9770 O   0  0  0  0  0  0  0  0  0  0  0  0
  4  3  1  0
  5  1  1  0
  7  6  2  0
  8  7  1  0
  9  8  2  0
 10  9  1  0
 11 10  2  0
 11  6  1  0
 12  2  1  0
 13 12  1  0
 13 11  1  0
 13  4  1  0
 14  2  1  0
 14  3  1  0
 15  6  1  0
 15  5  1  0
M  END
>  <id>  (27) 
27

>  <inchikey>  (27) 
FBQIUSDQWOLCNY-UHFFFAOYSA-N

>  <alias>  (27) 
m0332a

>  <smiles>  (27) 
CCOc1ccccc1N1CCNCC1

>  <path>  (27) 
/opt/xchem-fragalysis-2/maxwin/BulkDock/TARGETS/TRIM21/aligned_files/m0332a/m0332a.pdb

>  <distance_score>  (27) 
None

>  <energy_score>  (27) 
None

>  <compound>  (27) 
FBQIUSDQWOLCNY-UHFFFAOYSA-N

>  <compound_id>  (27) 
24

>  <target>  (27) 
TRIM21

>  <tags>  (27) 
['Main status', 'GOOD count', 'hits', 'BAD count', '[Other] upload_1 2025-03-17', 'MEDIOCRE count', 'iter1_hits']

>  <inspirations>  (27) 
None

>  <subsites>  (27) 
None

>  <reference>  (27) 


>  <observation_longname>  (27) 
TRIM21-x0332_B_302_v1

>  <ConformerSites alias>  (27) 
1a - m0031/B/401

>  <CanonSites alias>  (27) 
1 - m0031/B/401/1

>  <CrystalformSites alias>  (27) 
F1c - m0611/B/301

>  <Quatassemblies alias>  (27) 
A1 - monomer

>  <Crystalforms alias>  (27) 
F1 - xtalform1

>  <ConformerSites upload name>  (27) 
1a - TRIM21-x0031/B/401

>  <CanonSites upload name>  (27) 
1 - TRIM21-x0031/B/401/1

>  <CrystalformSites upload name>  (27) 
F1c - TRIM21-x0611/B/301/1

>  <Quatassemblies upload name>  (27) 
A1 - monomer

>  <Crystalforms upload name>  (27) 
F1 - xtalform1

>  <ConformerSites short tag>  (27) 
1a - m0031/B/401

>  <CanonSites short tag>  (27) 
1 - m0031/B/401/1

>  <CrystalformSites short tag>  (27) 
F1c - m0611/B/301

>  <Quatassemblies short tag>  (27) 
A1 - monomer

>  <Crystalforms short tag>  (27) 
F1 - xtalform1

>  <Centroid res>  (27) 
TRIM21-x0031/B/39/B_v1

>  <Experiment code>  (27) 
TRIM21-x0332

>  <Pose>  (27) 
m0332a

>  <exports>  (27) 
/opt/xchem-fragalysis-2/maxwin/TRIM21_FFF/knitwork/iter1/iter1_hits.sdf

$$$$
m0354a
     RDKit          3D

 15 16  0  0  0  0  0  0  0  0999 V2000
  -48.2890   -6.2960  -30.4910 C   0  0  0  0  0  0  0  0  0  0  0  0
  -42.6530   -6.3690  -28.4720 C   0  0  0  0  0  0  0  0  0  0  0  0
  -41.3380   -5.8980  -28.1680 C   0  0  0  0  0  0  0  0  0  0  0  0
  -43.7160   -5.4780  -28.4550 C   0  0  0  0  0  0  0  0  0  0  0  0
  -48.3510   -6.1820  -29.0150 C   0  0  0  0  0  0  0  0  0  0  0  0
  -48.9560   -6.3360  -26.9530 C   0  0  0  0  0  0  0  0  0  0  0  0
  -47.7790   -5.6750  -26.9410 C   0  0  0  0  0  0  0  0  0  0  0  0
  -46.1460   -4.9360  -28.6980 C   0  0  0  0  0  0  0  0  0  0  0  0
  -44.9970   -5.9110  -28.7290 C   0  0  0  0  0  0  0  0  0  0  0  0
  -45.2030   -7.2500  -29.0260 C   0  0  0  0  0  0  0  0  0  0  0  0
  -44.1440   -8.1400  -29.0500 C   0  0  0  0  0  0  0  0  0  0  0  0
  -42.8680   -7.7070  -28.7660 C   0  0  0  0  0  0  0  0  0  0  0  0
  -49.3120   -6.6620  -28.2470 N   0  0  0  0  0  0  0  0  0  0  0  0
  -47.3860   -5.5610  -28.2600 N   0  0  0  0  0  0  0  0  0  0  0  0
  -40.2830   -5.4940  -27.9630 N   0  0  0  0  0  0  0  0  0  0  0  0
  3  2  1  0
  4  2  2  0
  5  1  1  0
  7  6  2  0
  9  4  1  0
  9  8  1  0
 10  9  2  0
 11 10  1  0
 12 11  2  0
 12  2  1  0
 13  5  2  0
 13  6  1  0
 14  5  1  0
 14  7  1  0
 14  8  1  0
 15  3  3  0
M  END
>  <id>  (28) 
28

>  <inchikey>  (28) 
HMXUYPBDUYSWMA-UHFFFAOYSA-N

>  <alias>  (28) 
m0354a

>  <smiles>  (28) 
Cc1nccn1Cc1cccc(C#N)c1

>  <path>  (28) 
/opt/xchem-fragalysis-2/maxwin/BulkDock/TARGETS/TRIM21/aligned_files/m0354a/m0354a.pdb

>  <distance_score>  (28) 
None

>  <energy_score>  (28) 
None

>  <compound>  (28) 
HMXUYPBDUYSWMA-UHFFFAOYSA-N

>  <compound_id>  (28) 
25

>  <target>  (28) 
TRIM21

>  <tags>  (28) 
['Main status', 'GOOD count', 'hits', 'BAD count', '[Other] upload_1 2025-03-17', 'MEDIOCRE count', 'iter1_hits']

>  <inspirations>  (28) 
None

>  <subsites>  (28) 
None

>  <reference>  (28) 


>  <observation_longname>  (28) 
TRIM21-x0354_B_302_v1

>  <ConformerSites alias>  (28) 
1a - m0031/B/401

>  <CanonSites alias>  (28) 
1 - m0031/B/401/1

>  <CrystalformSites alias>  (28) 
F1c - m0611/B/301

>  <Quatassemblies alias>  (28) 
A1 - monomer

>  <Crystalforms alias>  (28) 
F1 - xtalform1

>  <ConformerSites upload name>  (28) 
1a - TRIM21-x0031/B/401

>  <CanonSites upload name>  (28) 
1 - TRIM21-x0031/B/401/1

>  <CrystalformSites upload name>  (28) 
F1c - TRIM21-x0611/B/301/1

>  <Quatassemblies upload name>  (28) 
A1 - monomer

>  <Crystalforms upload name>  (28) 
F1 - xtalform1

>  <ConformerSites short tag>  (28) 
1a - m0031/B/401

>  <CanonSites short tag>  (28) 
1 - m0031/B/401/1

>  <CrystalformSites short tag>  (28) 
F1c - m0611/B/301

>  <Quatassemblies short tag>  (28) 
A1 - monomer

>  <Crystalforms short tag>  (28) 
F1 - xtalform1

>  <Centroid res>  (28) 
TRIM21-x0031/B/39/B_v1

>  <Experiment code>  (28) 
TRIM21-x0354

>  <Pose>  (28) 
m0354a

>  <exports>  (28) 
/opt/xchem-fragalysis-2/maxwin/TRIM21_FFF/knitwork/iter1/iter1_hits.sdf

$$$$
m0358a
     RDKit          3D

 15 16  0  0  0  0  0  0  0  0999 V2000
  -38.8620  -15.3780  -23.2220 C   0  0  0  0  0  0  0  0  0  0  0  0
  -40.4310  -14.5050  -21.5130 C   0  0  0  0  0  0  0  0  0  0  0  0
  -40.8880  -16.6890  -22.6500 C   0  0  0  0  0  0  0  0  0  0  0  0
  -42.1750  -16.6660  -21.8880 C   0  0  0  0  0  0  0  0  0  0  0  0
  -41.9780  -16.1780  -20.4710 C   0  0  0  0  0  0  0  0  0  0  0  0
  -41.3810  -14.8000  -20.5050 C   0  0  0  0  0  0  0  0  0  0  0  0
  -41.7390  -13.8000  -19.6040 C   0  0  0  0  0  0  0  0  0  0  0  0
  -41.1740  -12.5360  -19.6700 C   0  0  0  0  0  0  0  0  0  0  0  0
  -40.2190  -12.2470  -20.6550 C   0  0  0  0  0  0  0  0  0  0  0  0
  -39.8670  -13.2230  -21.5760 C   0  0  0  0  0  0  0  0  0  0  0  0
  -40.0830  -15.4830  -22.4250 N   0  0  0  0  0  0  0  0  0  0  0  0
  -38.0170  -10.6500  -20.1280 N   0  0  0  0  0  0  0  0  0  0  0  0
  -39.3560  -10.3800  -22.1820 O   0  0  0  0  0  0  0  0  0  0  0  0
  -40.2900   -9.7310  -20.0030 O   0  0  0  0  0  0  0  0  0  0  0  0
  -39.4850  -10.6360  -20.7760 S   0  0  1  0  0  0  0  0  0  0  0  0
  4  3  1  0
  5  4  1  0
  6  5  1  0
  6  2  2  0
  7  6  1  0
  8  7  2  0
  9  8  1  0
 10  9  2  0
 10  2  1  0
 11  3  1  0
 11  1  1  0
 11  2  1  0
 15  9  1  0
 15 13  2  0
 15 14  2  0
 15 12  1  1
M  END
>  <id>  (29) 
29

>  <inchikey>  (29) 
OUJFDUTZTPBMDN-UHFFFAOYSA-N

>  <alias>  (29) 
m0358a

>  <smiles>  (29) 
CN1CCCc2ccc(S(N)(=O)=O)cc21

>  <path>  (29) 
/opt/xchem-fragalysis-2/maxwin/BulkDock/TARGETS/TRIM21/aligned_files/m0358a/m0358a.pdb

>  <distance_score>  (29) 
None

>  <energy_score>  (29) 
None

>  <compound>  (29) 
OUJFDUTZTPBMDN-UHFFFAOYSA-N

>  <compound_id>  (29) 
26

>  <target>  (29) 
TRIM21

>  <tags>  (29) 
['Main status', 'GOOD count', 'hits', 'BAD count', '[Other] upload_1 2025-03-17', 'MEDIOCRE count', 'iter1_hits']

>  <inspirations>  (29) 
None

>  <subsites>  (29) 
None

>  <reference>  (29) 


>  <observation_longname>  (29) 
TRIM21-x0358_B_302_v1

>  <ConformerSites alias>  (29) 
2a - m0043/B/302

>  <CanonSites alias>  (29) 
2 - m0043/B/302/1

>  <CrystalformSites alias>  (29) 
F1d - m0043/B/302

>  <Quatassemblies alias>  (29) 
A1 - monomer

>  <Crystalforms alias>  (29) 
F1 - xtalform1

>  <ConformerSites upload name>  (29) 
2a - TRIM21-x0043/B/302

>  <CanonSites upload name>  (29) 
2 - TRIM21-x0043/B/302/1

>  <CrystalformSites upload name>  (29) 
F1d - TRIM21-x0043/B/302/1

>  <Quatassemblies upload name>  (29) 
A1 - monomer

>  <Crystalforms upload name>  (29) 
F1 - xtalform1

>  <ConformerSites short tag>  (29) 
2a - m0043/B/302

>  <CanonSites short tag>  (29) 
2 - m0043/B/302/1

>  <CrystalformSites short tag>  (29) 
F1d - m0043/B/302

>  <Quatassemblies short tag>  (29) 
A1 - monomer

>  <Crystalforms short tag>  (29) 
F1 - xtalform1

>  <Centroid res>  (29) 
TRIM21-x0043/B/109/B_v1

>  <Experiment code>  (29) 
TRIM21-x0358

>  <Pose>  (29) 
m0358a

>  <exports>  (29) 
/opt/xchem-fragalysis-2/maxwin/TRIM21_FFF/knitwork/iter1/iter1_hits.sdf

$$$$
m0358b
     RDKit          3D

 15 16  0  0  0  0  0  0  0  0999 V2000
  -36.9870  -15.4680  -19.8020 C   0  0  0  0  0  0  0  0  0  0  0  0
  -38.9000  -16.3550  -18.5220 C   0  0  0  0  0  0  0  0  0  0  0  0
  -38.2410  -13.9540  -18.2900 C   0  0  0  0  0  0  0  0  0  0  0  0
  -38.8990  -13.9830  -16.9680 C   0  0  0  0  0  0  0  0  0  0  0  0
  -40.0840  -14.9100  -16.8270 C   0  0  0  0  0  0  0  0  0  0  0  0
  -39.8900  -16.2270  -17.5190 C   0  0  0  0  0  0  0  0  0  0  0  0
  -40.6970  -17.3240  -17.2180 C   0  0  0  0  0  0  0  0  0  0  0  0
  -40.5330  -18.5340  -17.8640 C   0  0  0  0  0  0  0  0  0  0  0  0
  -39.5540  -18.6570  -18.8490 C   0  0  0  0  0  0  0  0  0  0  0  0
  -38.7460  -17.5830  -19.1710 C   0  0  0  0  0  0  0  0  0  0  0  0
  -38.0820  -15.2950  -18.8510 N   0  0  0  0  0  0  0  0  0  0  0  0
  -38.5410  -21.1740  -18.7060 N   0  0  0  0  0  0  0  0  0  0  0  0
  -40.5820  -20.7530  -19.9850 O   0  0  0  0  0  0  0  0  0  0  0  0
  -38.4010  -19.9010  -20.7880 O   0  0  0  0  0  0  0  0  0  0  0  0
  -39.3010  -20.1790  -19.7060 S   0  0  1  0  0  0  0  0  0  0  0  0
  4  3  1  0
  5  4  1  0
  6  2  2  0
  6  5  1  0
  7  6  1  0
  8  7  2  0
  9  8  1  0
 10  9  2  0
 10  2  1  0
 11  2  1  0
 11  3  1  0
 11  1  1  0
 15 14  2  0
 15 13  2  0
 15 12  1  1
 15  9  1  0
M  END
>  <id>  (30) 
30

>  <inchikey>  (30) 
OUJFDUTZTPBMDN-UHFFFAOYSA-N

>  <alias>  (30) 
m0358b

>  <smiles>  (30) 
CN1CCCc2ccc(S(N)(=O)=O)cc21

>  <path>  (30) 
/opt/xchem-fragalysis-2/maxwin/BulkDock/TARGETS/TRIM21/aligned_files/m0358b/m0358b.pdb

>  <distance_score>  (30) 
None

>  <energy_score>  (30) 
None

>  <compound>  (30) 
OUJFDUTZTPBMDN-UHFFFAOYSA-N

>  <compound_id>  (30) 
26

>  <target>  (30) 
TRIM21

>  <tags>  (30) 
['Main status', 'GOOD count', 'hits', 'BAD count', '[Other] upload_1 2025-03-17', 'MEDIOCRE count', 'iter1_hits']

>  <inspirations>  (30) 
None

>  <subsites>  (30) 
None

>  <reference>  (30) 


>  <observation_longname>  (30) 
TRIM21-x0358_B_401_v1

>  <ConformerSites alias>  (30) 
2a - m0043/B/302

>  <CanonSites alias>  (30) 
2 - m0043/B/302/1

>  <CrystalformSites alias>  (30) 
F1d - m0043/B/302

>  <Quatassemblies alias>  (30) 
A1 - monomer

>  <Crystalforms alias>  (30) 
F1 - xtalform1

>  <ConformerSites upload name>  (30) 
2a - TRIM21-x0043/B/302

>  <CanonSites upload name>  (30) 
2 - TRIM21-x0043/B/302/1

>  <CrystalformSites upload name>  (30) 
F1d - TRIM21-x0043/B/302/1

>  <Quatassemblies upload name>  (30) 
A1 - monomer

>  <Crystalforms upload name>  (30) 
F1 - xtalform1

>  <ConformerSites short tag>  (30) 
2a - m0043/B/302

>  <CanonSites short tag>  (30) 
2 - m0043/B/302/1

>  <CrystalformSites short tag>  (30) 
F1d - m0043/B/302

>  <Quatassemblies short tag>  (30) 
A1 - monomer

>  <Crystalforms short tag>  (30) 
F1 - xtalform1

>  <Centroid res>  (30) 
TRIM21-x0043/B/109/B_v1

>  <Experiment code>  (30) 
TRIM21-x0358

>  <Pose>  (30) 
m0358a

>  <exports>  (30) 
/opt/xchem-fragalysis-2/maxwin/TRIM21_FFF/knitwork/iter1/iter1_hits.sdf

$$$$
m0379a
     RDKit          3D

 14 15  0  0  0  0  0  0  0  0999 V2000
  -37.8650  -11.8000  -17.8510 C   0  0  0  0  0  0  0  0  0  0  0  0
  -42.3410  -14.6770  -17.5280 C   0  0  0  0  0  0  0  0  0  0  0  0
  -38.6350  -12.8020  -18.6560 C   0  0  0  0  0  0  0  0  0  0  0  0
  -39.8590  -13.3280  -18.2680 C   0  0  0  0  0  0  0  0  0  0  0  0
  -40.4850  -14.2550  -19.1260 C   0  0  0  0  0  0  0  0  0  0  0  0
  -38.7210  -14.0460  -20.5830 C   0  0  0  0  0  0  0  0  0  0  0  0
  -38.0680  -14.4340  -21.8660 C   0  0  0  0  0  0  0  0  0  0  0  0
  -42.6340  -15.2130  -19.8970 C   0  0  0  0  0  0  0  0  0  0  0  0
  -43.4830  -16.4000  -19.4960 C   0  0  0  0  0  0  0  0  0  0  0  0
  -43.2350  -15.8520  -17.1810 C   0  0  0  0  0  0  0  0  0  0  0  0
  -39.8930  -14.6130  -20.2790 N   0  0  0  0  0  0  0  0  0  0  0  0
  -38.0880  -13.1670  -19.8180 N   0  0  0  0  0  0  0  0  0  0  0  0
  -41.6920  -14.8720  -18.8280 N   0  0  0  0  0  0  0  0  0  0  0  0
  -44.1900  -16.1190  -18.2520 N   0  0  0  0  0  0  0  0  0  0  0  0
  3  1  1  0
  4  3  2  0
  5  4  1  0
  7  6  1  0
  9  8  1  0
 10  2  1  0
 11  6  1  0
 11  5  2  0
 12  6  2  0
 12  3  1  0
 13  8  1  0
 13  5  1  0
 13  2  1  0
 14  9  1  0
 14 10  1  0
M  END
>  <id>  (31) 
31

>  <inchikey>  (31) 
NARMKNJWXHFJFF-UHFFFAOYSA-N

>  <alias>  (31) 
m0379a

>  <smiles>  (31) 
Cc1cc(N2CCNCC2)nc(C)n1

>  <path>  (31) 
/opt/xchem-fragalysis-2/maxwin/BulkDock/TARGETS/TRIM21/aligned_files/m0379a/m0379a.pdb

>  <distance_score>  (31) 
None

>  <energy_score>  (31) 
None

>  <compound>  (31) 
NARMKNJWXHFJFF-UHFFFAOYSA-N

>  <compound_id>  (31) 
27

>  <target>  (31) 
TRIM21

>  <tags>  (31) 
['Main status', 'GOOD count', 'hits', 'BAD count', '[Other] upload_1 2025-03-17', 'MEDIOCRE count', 'iter1_hits']

>  <inspirations>  (31) 
None

>  <subsites>  (31) 
None

>  <reference>  (31) 


>  <observation_longname>  (31) 
TRIM21-x0379_B_302_v1

>  <ConformerSites alias>  (31) 
2a - m0043/B/302

>  <CanonSites alias>  (31) 
2 - m0043/B/302/1

>  <CrystalformSites alias>  (31) 
F1d - m0043/B/302

>  <Quatassemblies alias>  (31) 
A1 - monomer

>  <Crystalforms alias>  (31) 
F1 - xtalform1

>  <ConformerSites upload name>  (31) 
2a - TRIM21-x0043/B/302

>  <CanonSites upload name>  (31) 
2 - TRIM21-x0043/B/302/1

>  <CrystalformSites upload name>  (31) 
F1d - TRIM21-x0043/B/302/1

>  <Quatassemblies upload name>  (31) 
A1 - monomer

>  <Crystalforms upload name>  (31) 
F1 - xtalform1

>  <ConformerSites short tag>  (31) 
2a - m0043/B/302

>  <CanonSites short tag>  (31) 
2 - m0043/B/302/1

>  <CrystalformSites short tag>  (31) 
F1d - m0043/B/302

>  <Quatassemblies short tag>  (31) 
A1 - monomer

>  <Crystalforms short tag>  (31) 
F1 - xtalform1

>  <Centroid res>  (31) 
TRIM21-x0043/B/109/B_v1

>  <Experiment code>  (31) 
TRIM21-x0379

>  <Pose>  (31) 
m0379a

>  <exports>  (31) 
/opt/xchem-fragalysis-2/maxwin/TRIM21_FFF/knitwork/iter1/iter1_hits.sdf

$$$$
m0393a
     RDKit          3D

 10 10  0  0  0  0  0  0  0  0999 V2000
  -38.8240  -20.4200  -19.5110 C   0  0  0  0  0  0  0  0  0  0  0  0
  -38.7250  -18.0480  -20.1170 C   0  0  0  0  0  0  0  0  0  0  0  0
  -38.9000  -16.6230  -19.6380 C   0  0  2  0  0  0  0  0  0  0  0  0
  -37.6890  -15.7470  -19.8950 C   0  0  0  0  0  0  0  0  0  0  0  0
  -38.3280  -14.3050  -18.0630 C   0  0  0  0  0  0  0  0  0  0  0  0
  -39.4340  -15.2760  -17.7190 C   0  0  0  0  0  0  0  0  0  0  0  0
  -39.1350  -19.0230  -19.2970 N   0  0  0  0  0  0  0  0  0  0  0  0
  -37.9830  -14.3640  -19.4870 N   0  0  0  0  0  0  0  0  0  0  0  0
  -38.2550  -18.3120  -21.2310 O   0  0  0  0  0  0  0  0  0  0  0  0
  -39.1980  -16.5950  -18.2350 O   0  0  0  0  0  0  0  0  0  0  0  0
  3  2  1  1
  4  3  1  0
  6  5  1  0
  7  2  1  0
  7  1  1  0
  8  5  1  0
  8  4  1  0
  9  2  2  0
 10  3  1  0
 10  6  1  0
M  END
>  <id>  (32) 
32

>  <inchikey>  (32) 
JOFDGSQZWZFPJC-YFKPBYRVSA-N

>  <alias>  (32) 
m0393a

>  <smiles>  (32) 
CNC(=O)[C@@H]1CNCCO1

>  <path>  (32) 
/opt/xchem-fragalysis-2/maxwin/BulkDock/TARGETS/TRIM21/aligned_files/m0393a/m0393a.pdb

>  <distance_score>  (32) 
None

>  <energy_score>  (32) 
None

>  <compound>  (32) 
JOFDGSQZWZFPJC-UHFFFAOYSA-N

>  <compound_id>  (32) 
28

>  <target>  (32) 
TRIM21

>  <tags>  (32) 
['Main status', 'GOOD count', 'hits', 'BAD count', '[Other] upload_1 2025-03-17', 'MEDIOCRE count', 'iter1_hits']

>  <inspirations>  (32) 
None

>  <subsites>  (32) 
None

>  <reference>  (32) 


>  <observation_longname>  (32) 
TRIM21-x0393_B_302_v1

>  <ConformerSites alias>  (32) 
2a - m0043/B/302

>  <CanonSites alias>  (32) 
2 - m0043/B/302/1

>  <CrystalformSites alias>  (32) 
F1d - m0043/B/302

>  <Quatassemblies alias>  (32) 
A1 - monomer

>  <Crystalforms alias>  (32) 
F1 - xtalform1

>  <ConformerSites upload name>  (32) 
2a - TRIM21-x0043/B/302

>  <CanonSites upload name>  (32) 
2 - TRIM21-x0043/B/302/1

>  <CrystalformSites upload name>  (32) 
F1d - TRIM21-x0043/B/302/1

>  <Quatassemblies upload name>  (32) 
A1 - monomer

>  <Crystalforms upload name>  (32) 
F1 - xtalform1

>  <ConformerSites short tag>  (32) 
2a - m0043/B/302

>  <CanonSites short tag>  (32) 
2 - m0043/B/302/1

>  <CrystalformSites short tag>  (32) 
F1d - m0043/B/302

>  <Quatassemblies short tag>  (32) 
A1 - monomer

>  <Crystalforms short tag>  (32) 
F1 - xtalform1

>  <Centroid res>  (32) 
TRIM21-x0043/B/109/B_v1

>  <Experiment code>  (32) 
TRIM21-x0393

>  <Pose>  (32) 
m0393a

>  <exports>  (32) 
/opt/xchem-fragalysis-2/maxwin/TRIM21_FFF/knitwork/iter1/iter1_hits.sdf

$$$$
m0401a
     RDKit          3D

 14 15  0  0  0  0  0  0  0  0999 V2000
  -45.6850   -9.0250  -30.5100 C   0  0  0  0  0  0  0  0  0  0  0  0
  -43.5790   -7.8380  -29.7100 C   0  0  0  0  0  0  0  0  0  0  0  0
  -45.8720   -6.8890  -29.1880 C   0  0  0  0  0  0  0  0  0  0  0  0
  -46.6240   -5.3330  -27.8640 C   0  0  0  0  0  0  0  0  0  0  0  0
  -46.7550   -4.3030  -26.7340 C   0  0  1  0  0  0  0  0  0  0  0  0
  -47.2990   -4.9970  -25.5390 C   0  0  0  0  0  0  0  0  0  0  0  0
  -47.4640   -4.0430  -24.3640 C   0  0  0  0  0  0  0  0  0  0  0  0
  -45.5670   -2.6690  -25.2970 C   0  0  0  0  0  0  0  0  0  0  0  0
  -45.4270   -3.7040  -26.3960 C   0  0  0  0  0  0  0  0  0  0  0  0
  -45.0370   -7.9160  -29.7960 N   0  0  0  0  0  0  0  0  0  0  0  0
  -47.0720   -6.5320  -29.6010 N   0  0  0  0  0  0  0  0  0  0  0  0
  -45.5680   -6.1370  -28.1010 N   0  0  0  0  0  0  0  0  0  0  0  0
  -46.2500   -3.2140  -24.0760 N   0  0  0  0  0  0  0  0  0  0  0  0
  -47.5240   -5.5560  -28.7710 O   0  0  0  0  0  0  0  0  0  0  0  0
  5  4  1  6
  6  5  1  0
  7  6  1  0
  9  8  1  0
  9  5  1  0
 10  3  1  0
 10  1  1  0
 10  2  1  0
 11  3  2  0
 12  3  1  0
 12  4  2  0
 13  8  1  0
 13  7  1  0
 14 11  1  0
 14  4  1  0
M  END
>  <id>  (33) 
33

>  <inchikey>  (33) 
STXBTTYNIARXAD-UHFFFAOYSA-N

>  <alias>  (33) 
m0401a

>  <smiles>  (33) 
CN(C)c1noc(C2CCNCC2)n1

>  <path>  (33) 
/opt/xchem-fragalysis-2/maxwin/BulkDock/TARGETS/TRIM21/aligned_files/m0401a/m0401a.pdb

>  <distance_score>  (33) 
None

>  <energy_score>  (33) 
None

>  <compound>  (33) 
STXBTTYNIARXAD-UHFFFAOYSA-N

>  <compound_id>  (33) 
29

>  <target>  (33) 
TRIM21

>  <tags>  (33) 
['Main status', 'GOOD count', 'hits', 'BAD count', '[Other] upload_1 2025-03-17', 'MEDIOCRE count', 'iter1_hits']

>  <inspirations>  (33) 
None

>  <subsites>  (33) 
None

>  <reference>  (33) 


>  <observation_longname>  (33) 
TRIM21-x0401_B_201_v1

>  <ConformerSites alias>  (33) 
1a - m0031/B/401

>  <CanonSites alias>  (33) 
1 - m0031/B/401/1

>  <CrystalformSites alias>  (33) 
F1c - m0611/B/301

>  <Quatassemblies alias>  (33) 
A1 - monomer

>  <Crystalforms alias>  (33) 
F1 - xtalform1

>  <ConformerSites upload name>  (33) 
1a - TRIM21-x0031/B/401

>  <CanonSites upload name>  (33) 
1 - TRIM21-x0031/B/401/1

>  <CrystalformSites upload name>  (33) 
F1c - TRIM21-x0611/B/301/1

>  <Quatassemblies upload name>  (33) 
A1 - monomer

>  <Crystalforms upload name>  (33) 
F1 - xtalform1

>  <ConformerSites short tag>  (33) 
1a - m0031/B/401

>  <CanonSites short tag>  (33) 
1 - m0031/B/401/1

>  <CrystalformSites short tag>  (33) 
F1c - m0611/B/301

>  <Quatassemblies short tag>  (33) 
A1 - monomer

>  <Crystalforms short tag>  (33) 
F1 - xtalform1

>  <Centroid res>  (33) 
TRIM21-x0031/B/39/B_v1

>  <Experiment code>  (33) 
TRIM21-x0401

>  <Pose>  (33) 
m0401a

>  <exports>  (33) 
/opt/xchem-fragalysis-2/maxwin/TRIM21_FFF/knitwork/iter1/iter1_hits.sdf

$$$$
m0404a
     RDKit          3D

 13 14  0  0  0  0  0  0  0  0999 V2000
  -44.7850   -8.8280  -29.9870 C   0  0  0  0  0  0  0  0  0  0  0  0
  -44.3850   -7.5660  -29.2580 C   0  0  0  0  0  0  0  0  0  0  0  0
  -44.7510   -5.6830  -27.9710 C   0  0  0  0  0  0  0  0  0  0  0  0
  -46.9020   -4.7260  -27.1790 C   0  0  0  0  0  0  0  0  0  0  0  0
  -47.4160   -5.2460  -25.8350 C   0  0  0  0  0  0  0  0  0  0  0  0
  -47.4000   -4.1950  -24.7280 C   0  0  0  0  0  0  0  0  0  0  0  0
  -45.3650   -3.0380  -25.3180 C   0  0  0  0  0  0  0  0  0  0  0  0
  -44.6100   -3.9110  -26.3090 C   0  0  0  0  0  0  0  0  0  0  0  0
  -43.1130   -7.0130  -29.1750 N   0  0  0  0  0  0  0  0  0  0  0  0
  -45.3600   -6.7500  -28.5140 N   0  0  0  0  0  0  0  0  0  0  0  0
  -45.4530   -4.7220  -27.1540 N   0  0  0  0  0  0  0  0  0  0  0  0
  -46.0780   -3.7990  -24.3020 N   0  0  0  0  0  0  0  0  0  0  0  0
  -43.1630   -5.7040  -28.2960 S   0  0  0  0  0  0  0  0  0  0  0  0
  2  1  1  0
  5  4  1  0
  6  5  1  0
  8  7  1  0
  9  2  2  0
 10  3  2  0
 10  2  1  0
 11  3  1  0
 11  8  1  0
 11  4  1  0
 12  7  1  0
 12  6  1  0
 13  3  1  0
 13  9  1  0
M  END
>  <id>  (34) 
34

>  <inchikey>  (34) 
MZKLTZIEMSVRMI-UHFFFAOYSA-N

>  <alias>  (34) 
m0404a

>  <smiles>  (34) 
Cc1nsc(N2CCCNCC2)n1

>  <path>  (34) 
/opt/xchem-fragalysis-2/maxwin/BulkDock/TARGETS/TRIM21/aligned_files/m0404a/m0404a.pdb

>  <distance_score>  (34) 
None

>  <energy_score>  (34) 
None

>  <compound>  (34) 
MZKLTZIEMSVRMI-UHFFFAOYSA-N

>  <compound_id>  (34) 
30

>  <target>  (34) 
TRIM21

>  <tags>  (34) 
['Main status', 'GOOD count', 'hits', 'BAD count', '[Other] upload_1 2025-03-17', 'MEDIOCRE count', 'iter1_hits']

>  <inspirations>  (34) 
None

>  <subsites>  (34) 
None

>  <reference>  (34) 


>  <observation_longname>  (34) 
TRIM21-x0404_B_302_v1

>  <ConformerSites alias>  (34) 
1a - m0031/B/401

>  <CanonSites alias>  (34) 
1 - m0031/B/401/1

>  <CrystalformSites alias>  (34) 
F1c - m0611/B/301

>  <Quatassemblies alias>  (34) 
A1 - monomer

>  <Crystalforms alias>  (34) 
F1 - xtalform1

>  <ConformerSites upload name>  (34) 
1a - TRIM21-x0031/B/401

>  <CanonSites upload name>  (34) 
1 - TRIM21-x0031/B/401/1

>  <CrystalformSites upload name>  (34) 
F1c - TRIM21-x0611/B/301/1

>  <Quatassemblies upload name>  (34) 
A1 - monomer

>  <Crystalforms upload name>  (34) 
F1 - xtalform1

>  <ConformerSites short tag>  (34) 
1a - m0031/B/401

>  <CanonSites short tag>  (34) 
1 - m0031/B/401/1

>  <CrystalformSites short tag>  (34) 
F1c - m0611/B/301

>  <Quatassemblies short tag>  (34) 
A1 - monomer

>  <Crystalforms short tag>  (34) 
F1 - xtalform1

>  <Centroid res>  (34) 
TRIM21-x0031/B/39/B_v1

>  <Experiment code>  (34) 
TRIM21-x0404

>  <Pose>  (34) 
m0404a

>  <exports>  (34) 
/opt/xchem-fragalysis-2/maxwin/TRIM21_FFF/knitwork/iter1/iter1_hits.sdf

$$$$
m0407a
     RDKit          3D

 17 18  0  0  0  0  0  0  0  0999 V2000
  -41.1850  -16.6510  -23.2160 C   0  0  0  0  0  0  0  0  0  0  0  0
  -39.0530  -14.8850  -17.7570 C   0  0  0  0  0  0  0  0  0  0  0  0
  -40.2160  -14.5940  -18.4280 C   0  0  0  0  0  0  0  0  0  0  0  0
  -42.1810  -15.9060  -22.5710 C   0  0  0  0  0  0  0  0  0  0  0  0
  -41.9580  -14.5930  -22.2070 C   0  0  0  0  0  0  0  0  0  0  0  0
  -40.7240  -14.0030  -22.4680 C   0  0  0  0  0  0  0  0  0  0  0  0
  -39.7180  -14.7350  -23.0870 C   0  0  0  0  0  0  0  0  0  0  0  0
  -39.9460  -16.0450  -23.4590 C   0  0  0  0  0  0  0  0  0  0  0  0
  -39.1360  -13.1890  -19.8800 C   0  0  0  0  0  0  0  0  0  0  0  0
  -37.9340  -13.3990  -19.2400 C   0  0  0  0  0  0  0  0  0  0  0  0
  -37.8970  -14.2670  -18.1770 C   0  0  0  0  0  0  0  0  0  0  0  0
  -41.4080  -17.9600  -23.5760 N   0  0  0  0  0  0  0  0  0  0  0  0
  -39.1950  -12.3460  -20.9300 N   0  0  0  0  0  0  0  0  0  0  0  0
  -40.2770  -13.7580  -19.4780 N   0  0  0  0  0  0  0  0  0  0  0  0
  -41.5670  -11.8780  -21.2660 O   0  0  0  0  0  0  0  0  0  0  0  0
  -39.9830  -11.6050  -23.1440 O   0  0  0  0  0  0  0  0  0  0  0  0
  -40.4240  -12.3340  -21.9980 S   0  0  2  0  0  0  0  0  0  0  0  0
  3  2  2  0
  4  1  2  0
  5  4  1  0
  6  5  2  0
  7  6  1  0
  8  1  1  0
  8  7  2  0
 10  9  1  0
 11  2  1  0
 11 10  2  0
 12  1  1  0
 13  9  1  0
 14  9  2  0
 14  3  1  0
 17 16  2  0
 17  6  1  0
 17 15  2  0
 17 13  1  1
M  END
>  <id>  (35) 
35

>  <inchikey>  (35) 
GECHUMIMRBOMGK-UHFFFAOYSA-N

>  <alias>  (35) 
m0407a

>  <smiles>  (35) 
Nc1ccc(S(=O)(=O)Nc2ccccn2)cc1

>  <path>  (35) 
/opt/xchem-fragalysis-2/maxwin/BulkDock/TARGETS/TRIM21/aligned_files/m0407a/m0407a.pdb

>  <distance_score>  (35) 
None

>  <energy_score>  (35) 
None

>  <compound>  (35) 
GECHUMIMRBOMGK-UHFFFAOYSA-N

>  <compound_id>  (35) 
31

>  <target>  (35) 
TRIM21

>  <tags>  (35) 
['Main status', 'GOOD count', 'hits', 'BAD count', '[Other] upload_1 2025-03-17', 'MEDIOCRE count', 'iter1_hits']

>  <inspirations>  (35) 
None

>  <subsites>  (35) 
None

>  <reference>  (35) 


>  <observation_longname>  (35) 
TRIM21-x0407_B_302_v1

>  <ConformerSites alias>  (35) 
2a - m0043/B/302

>  <CanonSites alias>  (35) 
2 - m0043/B/302/1

>  <CrystalformSites alias>  (35) 
F1d - m0043/B/302

>  <Quatassemblies alias>  (35) 
A1 - monomer

>  <Crystalforms alias>  (35) 
F1 - xtalform1

>  <ConformerSites upload name>  (35) 
2a - TRIM21-x0043/B/302

>  <CanonSites upload name>  (35) 
2 - TRIM21-x0043/B/302/1

>  <CrystalformSites upload name>  (35) 
F1d - TRIM21-x0043/B/302/1

>  <Quatassemblies upload name>  (35) 
A1 - monomer

>  <Crystalforms upload name>  (35) 
F1 - xtalform1

>  <ConformerSites short tag>  (35) 
2a - m0043/B/302

>  <CanonSites short tag>  (35) 
2 - m0043/B/302/1

>  <CrystalformSites short tag>  (35) 
F1d - m0043/B/302

>  <Quatassemblies short tag>  (35) 
A1 - monomer

>  <Crystalforms short tag>  (35) 
F1 - xtalform1

>  <Centroid res>  (35) 
TRIM21-x0043/B/109/B_v1

>  <Experiment code>  (35) 
TRIM21-x0407

>  <Pose>  (35) 
m0407a

>  <exports>  (35) 
/opt/xchem-fragalysis-2/maxwin/TRIM21_FFF/knitwork/iter1/iter1_hits.sdf

$$$$
m0409a
     RDKit          3D

 13 14  0  0  0  0  0  0  0  0999 V2000
  -46.5420  -10.9050  -30.3570 C   0  0  0  0  0  0  0  0  0  0  0  0
  -47.2110   -8.6850  -27.3730 C   0  0  0  0  0  0  0  0  0  0  0  0
  -46.9950  -10.5740  -28.9680 C   0  0  0  0  0  0  0  0  0  0  0  0
  -45.1820   -8.8500  -28.7160 C   0  0  0  0  0  0  0  0  0  0  0  0
  -45.4340   -7.4230  -28.3200 C   0  0  0  0  0  0  0  0  0  0  0  0
  -44.6920   -6.2890  -28.6240 C   0  0  0  0  0  0  0  0  0  0  0  0
  -45.1220   -5.0620  -28.1600 C   0  0  0  0  0  0  0  0  0  0  0  0
  -46.2870   -4.9590  -27.3950 C   0  0  0  0  0  0  0  0  0  0  0  0
  -47.0320   -6.1010  -27.0900 C   0  0  0  0  0  0  0  0  0  0  0  0
  -46.5950   -7.3310  -27.5590 C   0  0  0  0  0  0  0  0  0  0  0  0
  -46.4800   -9.4660  -28.3860 N   0  0  0  0  0  0  0  0  0  0  0  0
  -46.7100   -3.7150  -26.9340 N   0  0  0  0  0  0  0  0  0  0  0  0
  -47.8050  -11.2780  -28.3690 O   0  0  0  0  0  0  0  0  0  0  0  0
  3  1  1  0
  5  4  1  0
  6  5  1  0
  7  6  2  0
  8  7  1  0
  9  8  2  0
 10  5  2  0
 10  2  1  0
 10  9  1  0
 11  4  1  0
 11  3  1  0
 11  2  1  0
 12  8  1  0
 13  3  2  0
M  END
>  <id>  (36) 
36

>  <inchikey>  (36) 
YIOYWZUOBVMFGA-UHFFFAOYSA-N

>  <alias>  (36) 
m0409a

>  <smiles>  (36) 
CC(=O)N1Cc2ccc(N)cc2C1

>  <path>  (36) 
/opt/xchem-fragalysis-2/maxwin/BulkDock/TARGETS/TRIM21/aligned_files/m0409a/m0409a.pdb

>  <distance_score>  (36) 
None

>  <energy_score>  (36) 
None

>  <compound>  (36) 
YIOYWZUOBVMFGA-UHFFFAOYSA-N

>  <compound_id>  (36) 
32

>  <target>  (36) 
TRIM21

>  <tags>  (36) 
['Main status', 'GOOD count', 'hits', 'BAD count', '[Other] upload_1 2025-03-17', 'MEDIOCRE count', 'iter1_hits']

>  <inspirations>  (36) 
None

>  <subsites>  (36) 
None

>  <reference>  (36) 


>  <observation_longname>  (36) 
TRIM21-x0409_B_302_v1

>  <ConformerSites alias>  (36) 
1a - m0031/B/401

>  <CanonSites alias>  (36) 
1 - m0031/B/401/1

>  <CrystalformSites alias>  (36) 
F1c - m0611/B/301

>  <Quatassemblies alias>  (36) 
A1 - monomer

>  <Crystalforms alias>  (36) 
F1 - xtalform1

>  <ConformerSites upload name>  (36) 
1a - TRIM21-x0031/B/401

>  <CanonSites upload name>  (36) 
1 - TRIM21-x0031/B/401/1

>  <CrystalformSites upload name>  (36) 
F1c - TRIM21-x0611/B/301/1

>  <Quatassemblies upload name>  (36) 
A1 - monomer

>  <Crystalforms upload name>  (36) 
F1 - xtalform1

>  <ConformerSites short tag>  (36) 
1a - m0031/B/401

>  <CanonSites short tag>  (36) 
1 - m0031/B/401/1

>  <CrystalformSites short tag>  (36) 
F1c - m0611/B/301

>  <Quatassemblies short tag>  (36) 
A1 - monomer

>  <Crystalforms short tag>  (36) 
F1 - xtalform1

>  <Centroid res>  (36) 
TRIM21-x0031/B/39/B_v1

>  <Experiment code>  (36) 
TRIM21-x0409

>  <Pose>  (36) 
m0409a

>  <exports>  (36) 
/opt/xchem-fragalysis-2/maxwin/TRIM21_FFF/knitwork/iter1/iter1_hits.sdf

$$$$
m0424a
     RDKit          3D

 14 14  0  0  0  0  0  0  0  0999 V2000
  -46.6220   -7.2270  -30.4810 C   0  0  0  0  0  0  0  0  0  0  0  0
  -47.2760   -6.2340  -28.3490 C   0  0  0  0  0  0  0  0  0  0  0  0
  -46.8870   -5.3630  -27.1900 C   0  0  0  0  0  0  0  0  0  0  0  0
  -46.0690   -4.2600  -27.3930 C   0  0  0  0  0  0  0  0  0  0  0  0
  -45.7130   -3.4440  -26.3350 C   0  0  0  0  0  0  0  0  0  0  0  0
  -46.1810   -3.7250  -25.0640 C   0  0  0  0  0  0  0  0  0  0  0  0
  -46.9950   -4.8250  -24.8430 C   0  0  0  0  0  0  0  0  0  0  0  0
  -47.3450   -5.6370  -25.9070 C   0  0  0  0  0  0  0  0  0  0  0  0
  -46.3340   -6.5070  -29.2510 N   0  0  0  0  0  0  0  0  0  0  0  0
  -44.5710   -3.4450  -22.8950 N   0  0  0  0  0  0  0  0  0  0  0  0
  -48.4250   -6.6620  -28.4530 O   0  0  0  0  0  0  0  0  0  0  0  0
  -45.1180   -1.4990  -24.2640 O   0  0  0  0  0  0  0  0  0  0  0  0
  -46.8470   -2.5470  -22.8440 O   0  0  0  0  0  0  0  0  0  0  0  0
  -45.7150   -2.6840  -23.7130 S   0  0  1  0  0  0  0  0  0  0  0  0
  3  2  1  0
  4  3  2  0
  5  4  1  0
  6  5  2  0
  7  6  1  0
  8  7  2  0
  8  3  1  0
  9  2  1  0
  9  1  1  0
 11  2  2  0
 14 13  2  0
 14 12  2  0
 14 10  1  1
 14  6  1  0
M  END
>  <id>  (37) 
37

>  <inchikey>  (37) 
CTDFBRMMEMHBEO-UHFFFAOYSA-N

>  <alias>  (37) 
m0424a

>  <smiles>  (37) 
CNC(=O)c1ccc(S(N)(=O)=O)cc1

>  <path>  (37) 
/opt/xchem-fragalysis-2/maxwin/BulkDock/TARGETS/TRIM21/aligned_files/m0424a/m0424a.pdb

>  <distance_score>  (37) 
None

>  <energy_score>  (37) 
None

>  <compound>  (37) 
CTDFBRMMEMHBEO-UHFFFAOYSA-N

>  <compound_id>  (37) 
33

>  <target>  (37) 
TRIM21

>  <tags>  (37) 
['Main status', 'GOOD count', 'hits', 'BAD count', '[Other] upload_1 2025-03-17', 'MEDIOCRE count', 'iter1_hits']

>  <inspirations>  (37) 
None

>  <subsites>  (37) 
None

>  <reference>  (37) 


>  <observation_longname>  (37) 
TRIM21-x0424_B_302_v1

>  <ConformerSites alias>  (37) 
1a - m0031/B/401

>  <CanonSites alias>  (37) 
1 - m0031/B/401/1

>  <CrystalformSites alias>  (37) 
F1c - m0611/B/301

>  <Quatassemblies alias>  (37) 
A1 - monomer

>  <Crystalforms alias>  (37) 
F1 - xtalform1

>  <ConformerSites upload name>  (37) 
1a - TRIM21-x0031/B/401

>  <CanonSites upload name>  (37) 
1 - TRIM21-x0031/B/401/1

>  <CrystalformSites upload name>  (37) 
F1c - TRIM21-x0611/B/301/1

>  <Quatassemblies upload name>  (37) 
A1 - monomer

>  <Crystalforms upload name>  (37) 
F1 - xtalform1

>  <ConformerSites short tag>  (37) 
1a - m0031/B/401

>  <CanonSites short tag>  (37) 
1 - m0031/B/401/1

>  <CrystalformSites short tag>  (37) 
F1c - m0611/B/301

>  <Quatassemblies short tag>  (37) 
A1 - monomer

>  <Crystalforms short tag>  (37) 
F1 - xtalform1

>  <Centroid res>  (37) 
TRIM21-x0031/B/39/B_v1

>  <Experiment code>  (37) 
TRIM21-x0424

>  <Pose>  (37) 
m0424a

>  <exports>  (37) 
/opt/xchem-fragalysis-2/maxwin/TRIM21_FFF/knitwork/iter1/iter1_hits.sdf

$$$$
m0455a
     RDKit          3D

 10 10  0  0  0  0  0  0  0  0999 V2000
  -43.0480   -7.7110  -28.9520 C   0  0  0  0  0  0  0  0  0  0  0  0
  -43.5240   -6.4280  -29.6140 C   0  0  0  0  0  0  0  0  0  0  0  0
  -44.3960   -5.5880  -28.7170 C   0  0  0  0  0  0  0  0  0  0  0  0
  -46.1910   -4.5920  -27.9050 C   0  0  0  0  0  0  0  0  0  0  0  0
  -45.3090   -4.0350  -27.0620 C   0  0  0  0  0  0  0  0  0  0  0  0
  -45.5380   -3.0230  -25.9790 C   0  0  0  0  0  0  0  0  0  0  0  0
  -44.6820   -3.1780  -23.5990 C   0  0  0  0  0  0  0  0  0  0  0  0
  -45.6900   -5.4840  -28.8350 N   0  0  0  0  0  0  0  0  0  0  0  0
  -45.6220   -3.6210  -24.6420 N   0  0  0  0  0  0  0  0  0  0  0  0
  -43.7480   -4.6860  -27.3960 S   0  0  0  0  0  0  0  0  0  0  0  0
  2  1  1  0
  3  2  1  0
  5  4  2  0
  6  5  1  0
  8  3  2  0
  8  4  1  0
  9  7  1  0
  9  6  1  0
 10  3  1  0
 10  5  1  0
M  END
>  <id>  (38) 
38

>  <inchikey>  (38) 
CSZFIJNBBMUGDN-UHFFFAOYSA-N

>  <alias>  (38) 
m0455a

>  <smiles>  (38) 
CCc1ncc(CNC)s1

>  <path>  (38) 
/opt/xchem-fragalysis-2/maxwin/BulkDock/TARGETS/TRIM21/aligned_files/m0455a/m0455a.pdb

>  <distance_score>  (38) 
None

>  <energy_score>  (38) 
None

>  <compound>  (38) 
CSZFIJNBBMUGDN-UHFFFAOYSA-N

>  <compound_id>  (38) 
34

>  <target>  (38) 
TRIM21

>  <tags>  (38) 
['Main status', 'GOOD count', 'hits', 'BAD count', '[Other] upload_1 2025-03-17', 'MEDIOCRE count', 'iter1_hits']

>  <inspirations>  (38) 
None

>  <subsites>  (38) 
None

>  <reference>  (38) 


>  <observation_longname>  (38) 
TRIM21-x0455_B_302_v1

>  <ConformerSites alias>  (38) 
1a - m0031/B/401

>  <CanonSites alias>  (38) 
1 - m0031/B/401/1

>  <CrystalformSites alias>  (38) 
F1c - m0611/B/301

>  <Quatassemblies alias>  (38) 
A1 - monomer

>  <Crystalforms alias>  (38) 
F1 - xtalform1

>  <ConformerSites upload name>  (38) 
1a - TRIM21-x0031/B/401

>  <CanonSites upload name>  (38) 
1 - TRIM21-x0031/B/401/1

>  <CrystalformSites upload name>  (38) 
F1c - TRIM21-x0611/B/301/1

>  <Quatassemblies upload name>  (38) 
A1 - monomer

>  <Crystalforms upload name>  (38) 
F1 - xtalform1

>  <ConformerSites short tag>  (38) 
1a - m0031/B/401

>  <CanonSites short tag>  (38) 
1 - m0031/B/401/1

>  <CrystalformSites short tag>  (38) 
F1c - m0611/B/301

>  <Quatassemblies short tag>  (38) 
A1 - monomer

>  <Crystalforms short tag>  (38) 
F1 - xtalform1

>  <Centroid res>  (38) 
TRIM21-x0031/B/39/B_v1

>  <Experiment code>  (38) 
TRIM21-x0455

>  <Pose>  (38) 
m0455a

>  <exports>  (38) 
/opt/xchem-fragalysis-2/maxwin/TRIM21_FFF/knitwork/iter1/iter1_hits.sdf

$$$$
m0457a
     RDKit          3D

 13 14  0  0  0  0  0  0  0  0999 V2000
  -45.1150   -5.4620  -29.9330 C   0  0  0  0  0  0  0  0  0  0  0  0
  -43.0890   -7.9350  -28.9090 C   0  0  0  0  0  0  0  0  0  0  0  0
  -46.3800   -5.4840  -27.7650 C   0  0  0  0  0  0  0  0  0  0  0  0
  -47.1460   -6.1920  -26.8150 C   0  0  0  0  0  0  0  0  0  0  0  0
  -47.4740   -5.5760  -25.6360 C   0  0  0  0  0  0  0  0  0  0  0  0
  -46.3770   -3.6690  -26.2090 C   0  0  0  0  0  0  0  0  0  0  0  0
  -45.9830   -4.1770  -27.4190 C   0  0  0  0  0  0  0  0  0  0  0  0
  -43.6660   -5.8950  -29.7960 C   0  0  1  0  0  0  0  0  0  0  0  0
  -43.0150   -5.6760  -28.4470 C   0  0  0  0  0  0  0  0  0  0  0  0
  -42.2820   -6.9440  -28.1720 C   0  0  0  0  0  0  0  0  0  0  0  0
  -46.0200   -6.0600  -28.9600 N   0  0  0  0  0  0  0  0  0  0  0  0
  -47.1060   -4.3320  -25.3050 N   0  0  0  0  0  0  0  0  0  0  0  0
  -43.5870   -7.2750  -30.0640 O   0  0  0  0  0  0  0  0  0  0  0  0
  4  3  2  0
  5  4  1  0
  7  3  1  0
  7  6  2  0
  8  1  1  1
  9  8  1  0
 10  9  1  0
 10  2  1  0
 11  3  1  0
 11  1  1  0
 12  5  2  0
 12  6  1  0
 13  8  1  0
 13  2  1  0
M  END
>  <id>  (39) 
39

>  <inchikey>  (39) 
CRFFHQRTZREWOJ-SNVBAGLBSA-N

>  <alias>  (39) 
m0457a

>  <smiles>  (39) 
c1cc(NC[C@H]2CCCO2)ccn1

>  <path>  (39) 
/opt/xchem-fragalysis-2/maxwin/BulkDock/TARGETS/TRIM21/aligned_files/m0457a/m0457a.pdb

>  <distance_score>  (39) 
None

>  <energy_score>  (39) 
None

>  <compound>  (39) 
CRFFHQRTZREWOJ-UHFFFAOYSA-N

>  <compound_id>  (39) 
35

>  <target>  (39) 
TRIM21

>  <tags>  (39) 
['Main status', 'GOOD count', 'hits', 'BAD count', '[Other] upload_1 2025-03-17', 'MEDIOCRE count', 'iter1_hits']

>  <inspirations>  (39) 
None

>  <subsites>  (39) 
None

>  <reference>  (39) 


>  <observation_longname>  (39) 
TRIM21-x0457_B_302_v1

>  <ConformerSites alias>  (39) 
1a - m0031/B/401

>  <CanonSites alias>  (39) 
1 - m0031/B/401/1

>  <CrystalformSites alias>  (39) 
F1c - m0611/B/301

>  <Quatassemblies alias>  (39) 
A1 - monomer

>  <Crystalforms alias>  (39) 
F1 - xtalform1

>  <ConformerSites upload name>  (39) 
1a - TRIM21-x0031/B/401

>  <CanonSites upload name>  (39) 
1 - TRIM21-x0031/B/401/1

>  <CrystalformSites upload name>  (39) 
F1c - TRIM21-x0611/B/301/1

>  <Quatassemblies upload name>  (39) 
A1 - monomer

>  <Crystalforms upload name>  (39) 
F1 - xtalform1

>  <ConformerSites short tag>  (39) 
1a - m0031/B/401

>  <CanonSites short tag>  (39) 
1 - m0031/B/401/1

>  <CrystalformSites short tag>  (39) 
F1c - m0611/B/301

>  <Quatassemblies short tag>  (39) 
A1 - monomer

>  <Crystalforms short tag>  (39) 
F1 - xtalform1

>  <Centroid res>  (39) 
TRIM21-x0031/B/39/B_v1

>  <Experiment code>  (39) 
TRIM21-x0457

>  <Pose>  (39) 
m0457a

>  <exports>  (39) 
/opt/xchem-fragalysis-2/maxwin/TRIM21_FFF/knitwork/iter1/iter1_hits.sdf

$$$$
m0468a
     RDKit          3D

 14 15  0  0  0  0  0  0  0  0999 V2000
  -46.4070   -4.3540  -22.9990 C   0  0  0  0  0  0  0  0  0  0  0  0
  -44.9970   -2.9180  -25.2490 C   0  0  0  0  0  0  0  0  0  0  0  0
  -44.6300   -4.1580  -26.0550 C   0  0  0  0  0  0  0  0  0  0  0  0
  -44.7250   -6.0220  -27.1960 C   0  0  0  0  0  0  0  0  0  0  0  0
  -45.0940   -7.2100  -27.8810 C   0  0  0  0  0  0  0  0  0  0  0  0
  -44.1190   -7.9970  -28.4790 C   0  0  0  0  0  0  0  0  0  0  0  0
  -42.7770   -7.6150  -28.4200 C   0  0  0  0  0  0  0  0  0  0  0  0
  -42.3990   -6.4490  -27.7500 C   0  0  0  0  0  0  0  0  0  0  0  0
  -43.4100   -5.6410  -27.1260 C   0  0  0  0  0  0  0  0  0  0  0  0
  -45.4650   -5.0820  -26.5260 N   0  0  0  0  0  0  0  0  0  0  0  0
  -43.3920   -4.4870  -26.4140 N   0  0  0  0  0  0  0  0  0  0  0  0
  -43.8310   -3.9000  -22.9890 O   0  0  0  0  0  0  0  0  0  0  0  0
  -45.0560   -2.0400  -22.6770 O   0  0  0  0  0  0  0  0  0  0  0  0
  -45.0490   -3.2760  -23.4670 S   0  0  2  0  0  0  0  0  0  0  0  0
  3  2  1  0
  5  4  1  0
  6  5  2  0
  7  6  1  0
  8  7  2  0
  9  4  2  0
  9  8  1  0
 10  4  1  0
 10  3  2  0
 11  3  1  0
 11  9  1  0
 14 13  2  0
 14 12  2  0
 14  2  1  0
 14  1  1  6
M  END
>  <id>  (40) 
40

>  <inchikey>  (40) 
WCWTYTQSZZWNEW-UHFFFAOYSA-N

>  <alias>  (40) 
m0468a

>  <smiles>  (40) 
CS(=O)(=O)Cc1nc2ccccc2[nH]1

>  <path>  (40) 
/opt/xchem-fragalysis-2/maxwin/BulkDock/TARGETS/TRIM21/aligned_files/m0468a/m0468a.pdb

>  <distance_score>  (40) 
None

>  <energy_score>  (40) 
None

>  <compound>  (40) 
WCWTYTQSZZWNEW-UHFFFAOYSA-N

>  <compound_id>  (40) 
36

>  <target>  (40) 
TRIM21

>  <tags>  (40) 
['Main status', 'GOOD count', 'hits', 'BAD count', '[Other] upload_1 2025-03-17', 'MEDIOCRE count', 'iter1_hits']

>  <inspirations>  (40) 
None

>  <subsites>  (40) 
None

>  <reference>  (40) 


>  <observation_longname>  (40) 
TRIM21-x0468_B_302_v1

>  <ConformerSites alias>  (40) 
1a - m0031/B/401

>  <CanonSites alias>  (40) 
1 - m0031/B/401/1

>  <CrystalformSites alias>  (40) 
F1c - m0611/B/301

>  <Quatassemblies alias>  (40) 
A1 - monomer

>  <Crystalforms alias>  (40) 
F1 - xtalform1

>  <ConformerSites upload name>  (40) 
1a - TRIM21-x0031/B/401

>  <CanonSites upload name>  (40) 
1 - TRIM21-x0031/B/401/1

>  <CrystalformSites upload name>  (40) 
F1c - TRIM21-x0611/B/301/1

>  <Quatassemblies upload name>  (40) 
A1 - monomer

>  <Crystalforms upload name>  (40) 
F1 - xtalform1

>  <ConformerSites short tag>  (40) 
1a - m0031/B/401

>  <CanonSites short tag>  (40) 
1 - m0031/B/401/1

>  <CrystalformSites short tag>  (40) 
F1c - m0611/B/301

>  <Quatassemblies short tag>  (40) 
A1 - monomer

>  <Crystalforms short tag>  (40) 
F1 - xtalform1

>  <Centroid res>  (40) 
TRIM21-x0031/B/39/B_v1

>  <Experiment code>  (40) 
TRIM21-x0468

>  <Pose>  (40) 
m0468a

>  <exports>  (40) 
/opt/xchem-fragalysis-2/maxwin/TRIM21_FFF/knitwork/iter1/iter1_hits.sdf

$$$$
m0469a
     RDKit          3D

 13 14  0  0  0  0  0  0  0  0999 V2000
  -42.4360   -7.1090  -28.3590 C   0  0  0  0  0  0  0  0  0  0  0  0
  -43.4490   -6.4150  -29.2760 C   0  0  2  0  0  0  0  0  0  0  0  0
  -44.8350   -6.5290  -28.6500 C   0  0  0  0  0  0  0  0  0  0  0  0
  -45.5250   -7.6810  -28.3240 C   0  0  0  0  0  0  0  0  0  0  0  0
  -45.5910   -5.4540  -28.3030 C   0  0  0  0  0  0  0  0  0  0  0  0
  -47.7270   -4.9360  -27.3380 C   0  0  1  0  0  0  0  0  0  0  0  0
  -49.1670   -5.1330  -27.8920 C   0  0  0  0  0  0  0  0  0  0  0  0
  -50.0010   -4.6150  -26.9120 C   0  0  0  0  0  0  0  0  0  0  0  0
  -49.0820   -4.1790  -25.6170 C   0  0  0  0  0  0  0  0  0  0  0  0
  -47.9080   -4.9280  -25.7610 C   0  0  0  0  0  0  0  0  0  0  0  0
  -46.6890   -7.3030  -27.7920 N   0  0  0  0  0  0  0  0  0  0  0  0
  -46.7080   -5.9190  -27.7720 N   0  0  0  0  0  0  0  0  0  0  0  0
  -43.3690   -7.0360  -30.5280 O   0  0  0  0  0  0  0  0  0  0  0  0
  2  1  1  1
  3  2  1  0
  4  3  1  0
  5  3  2  0
  7  6  1  0
  8  7  1  0
  9  8  1  0
 10  9  1  0
 10  6  1  0
 11  4  2  0
 12 11  1  0
 12  5  1  0
  6 12  1  1
 13  2  1  0
M  END
>  <id>  (41) 
41

>  <inchikey>  (41) 
TUZCKTQECDPISK-MRVPVSSYSA-N

>  <alias>  (41) 
m0469a

>  <smiles>  (41) 
C[C@@H](O)c1cnn(C2CCCC2)c1

>  <path>  (41) 
/opt/xchem-fragalysis-2/maxwin/BulkDock/TARGETS/TRIM21/aligned_files/m0469a/m0469a.pdb

>  <distance_score>  (41) 
None

>  <energy_score>  (41) 
None

>  <compound>  (41) 
TUZCKTQECDPISK-UHFFFAOYSA-N

>  <compound_id>  (41) 
37

>  <target>  (41) 
TRIM21

>  <tags>  (41) 
['Main status', 'GOOD count', 'hits', 'BAD count', '[Other] upload_1 2025-03-17', 'MEDIOCRE count', 'iter1_hits']

>  <inspirations>  (41) 
None

>  <subsites>  (41) 
None

>  <reference>  (41) 


>  <observation_longname>  (41) 
TRIM21-x0469_B_302_v1

>  <ConformerSites alias>  (41) 
1a - m0031/B/401

>  <CanonSites alias>  (41) 
1 - m0031/B/401/1

>  <CrystalformSites alias>  (41) 
F1c - m0611/B/301

>  <Quatassemblies alias>  (41) 
A1 - monomer

>  <Crystalforms alias>  (41) 
F1 - xtalform1

>  <ConformerSites upload name>  (41) 
1a - TRIM21-x0031/B/401

>  <CanonSites upload name>  (41) 
1 - TRIM21-x0031/B/401/1

>  <CrystalformSites upload name>  (41) 
F1c - TRIM21-x0611/B/301/1

>  <Quatassemblies upload name>  (41) 
A1 - monomer

>  <Crystalforms upload name>  (41) 
F1 - xtalform1

>  <ConformerSites short tag>  (41) 
1a - m0031/B/401

>  <CanonSites short tag>  (41) 
1 - m0031/B/401/1

>  <CrystalformSites short tag>  (41) 
F1c - m0611/B/301

>  <Quatassemblies short tag>  (41) 
A1 - monomer

>  <Crystalforms short tag>  (41) 
F1 - xtalform1

>  <Centroid res>  (41) 
TRIM21-x0031/B/39/B_v1

>  <Experiment code>  (41) 
TRIM21-x0469

>  <Pose>  (41) 
m0469a

>  <exports>  (41) 
/opt/xchem-fragalysis-2/maxwin/TRIM21_FFF/knitwork/iter1/iter1_hits.sdf

$$$$
m0470a
     RDKit          3D

 12 12  0  0  0  0  0  0  0  0999 V2000
  -44.5510   -0.8910  -23.6470 C   0  0  0  0  0  0  0  0  0  0  0  0
  -46.3680   -4.3570  -25.1620 C   0  0  0  0  0  0  0  0  0  0  0  0
  -46.6570   -4.6340  -26.6310 C   0  0  2  0  0  0  0  0  0  0  0  0
  -47.4750   -5.8650  -26.7000 C   0  0  0  0  0  0  0  0  0  0  0  0
  -47.8320   -6.1350  -28.1500 C   0  0  0  0  0  0  0  0  0  0  0  0
  -45.5550   -5.3010  -28.7990 C   0  0  0  0  0  0  0  0  0  0  0  0
  -45.3810   -4.7700  -27.3820 C   0  0  0  0  0  0  0  0  0  0  0  0
  -45.7530   -3.0550  -25.0140 N   0  0  0  0  0  0  0  0  0  0  0  0
  -46.5950   -6.3420  -28.9360 N   0  0  0  0  0  0  0  0  0  0  0  0
  -46.3640   -2.6030  -22.5200 O   0  0  0  0  0  0  0  0  0  0  0  0
  -44.2540   -3.4730  -22.9050 O   0  0  0  0  0  0  0  0  0  0  0  0
  -45.2460   -2.5640  -23.4660 S   0  0  2  0  0  0  0  0  0  0  0  0
  3  2  1  1
  4  3  1  0
  5  4  1  0
  7  6  1  0
  7  3  1  0
  8  2  1  0
  9  5  1  0
  9  6  1  0
 12 11  2  0
 12 10  2  0
 12  8  1  0
 12  1  1  6
M  END
>  <id>  (42) 
42

>  <inchikey>  (42) 
LULUGSQUPICPQM-UHFFFAOYSA-N

>  <alias>  (42) 
m0470a

>  <smiles>  (42) 
CS(=O)(=O)NCC1CCNCC1

>  <path>  (42) 
/opt/xchem-fragalysis-2/maxwin/BulkDock/TARGETS/TRIM21/aligned_files/m0470a/m0470a.pdb

>  <distance_score>  (42) 
None

>  <energy_score>  (42) 
None

>  <compound>  (42) 
LULUGSQUPICPQM-UHFFFAOYSA-N

>  <compound_id>  (42) 
38

>  <target>  (42) 
TRIM21

>  <tags>  (42) 
['Main status', 'GOOD count', 'hits', 'BAD count', '[Other] upload_1 2025-03-17', 'MEDIOCRE count', 'iter1_hits']

>  <inspirations>  (42) 
None

>  <subsites>  (42) 
None

>  <reference>  (42) 


>  <observation_longname>  (42) 
TRIM21-x0470_B_302_v1

>  <ConformerSites alias>  (42) 
1a - m0031/B/401

>  <CanonSites alias>  (42) 
1 - m0031/B/401/1

>  <CrystalformSites alias>  (42) 
F1c - m0611/B/301

>  <Quatassemblies alias>  (42) 
A1 - monomer

>  <Crystalforms alias>  (42) 
F1 - xtalform1

>  <ConformerSites upload name>  (42) 
1a - TRIM21-x0031/B/401

>  <CanonSites upload name>  (42) 
1 - TRIM21-x0031/B/401/1

>  <CrystalformSites upload name>  (42) 
F1c - TRIM21-x0611/B/301/1

>  <Quatassemblies upload name>  (42) 
A1 - monomer

>  <Crystalforms upload name>  (42) 
F1 - xtalform1

>  <ConformerSites short tag>  (42) 
1a - m0031/B/401

>  <CanonSites short tag>  (42) 
1 - m0031/B/401/1

>  <CrystalformSites short tag>  (42) 
F1c - m0611/B/301

>  <Quatassemblies short tag>  (42) 
A1 - monomer

>  <Crystalforms short tag>  (42) 
F1 - xtalform1

>  <Centroid res>  (42) 
TRIM21-x0031/B/39/B_v1

>  <Experiment code>  (42) 
TRIM21-x0470

>  <Pose>  (42) 
m0470a

>  <exports>  (42) 
/opt/xchem-fragalysis-2/maxwin/TRIM21_FFF/knitwork/iter1/iter1_hits.sdf

$$$$
m0471a
     RDKit          3D

 12 12  0  0  0  0  0  0  0  0999 V2000
  -46.6370   -4.6800  -26.0730 C   0  0  0  0  0  0  0  0  0  0  0  0
  -46.5680   -4.1450  -27.4910 C   0  0  0  0  0  0  0  0  0  0  0  0
  -45.4280   -5.9730  -28.5150 C   0  0  0  0  0  0  0  0  0  0  0  0
  -44.1960   -5.3810  -28.6770 C   0  0  0  0  0  0  0  0  0  0  0  0
  -43.0670   -6.1670  -28.7940 C   0  0  0  0  0  0  0  0  0  0  0  0
  -43.1980   -7.5500  -28.7660 C   0  0  0  0  0  0  0  0  0  0  0  0
  -44.4330   -8.1460  -28.6080 C   0  0  0  0  0  0  0  0  0  0  0  0
  -45.5520   -7.3450  -28.4820 C   0  0  0  0  0  0  0  0  0  0  0  0
  -42.0880   -8.3340  -28.8690 F   0  0  0  0  0  0  0  0  0  0  0  0
  -46.1590   -3.9740  -25.1630 O   0  0  0  0  0  0  0  0  0  0  0  0
  -47.1330   -5.8200  -25.8440 O   0  0  0  0  0  0  0  0  0  0  0  0
  -46.5900   -5.2180  -28.3930 O   0  0  0  0  0  0  0  0  0  0  0  0
  2  1  1  0
  4  3  2  0
  5  4  1  0
  6  5  2  0
  7  6  1  0
  8  7  2  0
  8  3  1  0
  9  6  1  0
 10  1  1  0
 11  1  1  0
 12  3  1  0
 12  2  1  0
M  CHG  1  10  -1
M  END
>  <id>  (43) 
43

>  <inchikey>  (43) 
NZHISMGNIMUPRL-UHFFFAOYSA-N

>  <alias>  (43) 
m0471a

>  <smiles>  (43) 
[O-]C(O)COc1ccc(F)cc1

>  <path>  (43) 
/opt/xchem-fragalysis-2/maxwin/BulkDock/TARGETS/TRIM21/aligned_files/m0471a/m0471a.pdb

>  <distance_score>  (43) 
None

>  <energy_score>  (43) 
None

>  <compound>  (43) 
NZHISMGNIMUPRL-UHFFFAOYSA-N

>  <compound_id>  (43) 
39

>  <target>  (43) 
TRIM21

>  <tags>  (43) 
['Main status', 'GOOD count', 'hits', 'BAD count', '[Other] upload_1 2025-03-17', 'MEDIOCRE count', 'iter1_hits']

>  <inspirations>  (43) 
None

>  <subsites>  (43) 
None

>  <reference>  (43) 


>  <observation_longname>  (43) 
TRIM21-x0471_B_302_v1

>  <ConformerSites alias>  (43) 
1a - m0031/B/401

>  <CanonSites alias>  (43) 
1 - m0031/B/401/1

>  <CrystalformSites alias>  (43) 
F1c - m0611/B/301

>  <Quatassemblies alias>  (43) 
A1 - monomer

>  <Crystalforms alias>  (43) 
F1 - xtalform1

>  <ConformerSites upload name>  (43) 
1a - TRIM21-x0031/B/401

>  <CanonSites upload name>  (43) 
1 - TRIM21-x0031/B/401/1

>  <CrystalformSites upload name>  (43) 
F1c - TRIM21-x0611/B/301/1

>  <Quatassemblies upload name>  (43) 
A1 - monomer

>  <Crystalforms upload name>  (43) 
F1 - xtalform1

>  <ConformerSites short tag>  (43) 
1a - m0031/B/401

>  <CanonSites short tag>  (43) 
1 - m0031/B/401/1

>  <CrystalformSites short tag>  (43) 
F1c - m0611/B/301

>  <Quatassemblies short tag>  (43) 
A1 - monomer

>  <Crystalforms short tag>  (43) 
F1 - xtalform1

>  <Centroid res>  (43) 
TRIM21-x0031/B/39/B_v1

>  <Experiment code>  (43) 
TRIM21-x0471

>  <Pose>  (43) 
m0471a

>  <exports>  (43) 
/opt/xchem-fragalysis-2/maxwin/TRIM21_FFF/knitwork/iter1/iter1_hits.sdf

$$$$
m0472a
     RDKit          3D

 14 15  0  0  0  0  0  0  0  0999 V2000
  -45.9500   -2.1170  -22.5940 C   0  0  0  0  0  0  0  0  0  0  0  0
  -44.1350   -5.7220  -27.0040 C   0  0  0  0  0  0  0  0  0  0  0  0
  -44.4080   -4.6040  -26.0380 C   0  0  0  0  0  0  0  0  0  0  0  0
  -45.4060   -3.3000  -23.3400 C   0  0  0  0  0  0  0  0  0  0  0  0
  -45.7070   -4.7680  -25.2970 C   0  0  2  0  0  0  0  0  0  0  0  0
  -46.8260   -5.0710  -26.3020 C   0  0  0  0  0  0  0  0  0  0  0  0
  -45.1910   -6.4720  -27.5320 C   0  0  0  0  0  0  0  0  0  0  0  0
  -44.9340   -7.5330  -28.4140 C   0  0  0  0  0  0  0  0  0  0  0  0
  -43.6350   -7.8000  -28.7990 C   0  0  0  0  0  0  0  0  0  0  0  0
  -42.5830   -7.0510  -28.3100 C   0  0  0  0  0  0  0  0  0  0  0  0
  -42.8370   -6.0260  -27.4150 C   0  0  0  0  0  0  0  0  0  0  0  0
  -45.9990   -3.5780  -24.5070 N   0  0  0  0  0  0  0  0  0  0  0  0
  -46.4810   -6.2100  -27.1360 N   0  0  0  0  0  0  0  0  0  0  0  0
  -44.4690   -3.9720  -22.9070 O   0  0  0  0  0  0  0  0  0  0  0  0
  3  2  1  0
  4  1  1  0
  5  3  1  0
  6  5  1  0
  7  2  2  0
  8  7  1  0
  9  8  2  0
 10  9  1  0
 11  2  1  0
 11 10  2  0
  5 12  1  6
 12  4  1  0
 13  7  1  0
 13  6  1  0
 14  4  2  0
M  END
>  <id>  (44) 
44

>  <inchikey>  (44) 
HCEIEGOMGWEGOJ-SNVBAGLBSA-N

>  <alias>  (44) 
m0472a

>  <smiles>  (44) 
CC(=O)N[C@H]1CNc2ccccc2C1

>  <path>  (44) 
/opt/xchem-fragalysis-2/maxwin/BulkDock/TARGETS/TRIM21/aligned_files/m0472a/m0472a.pdb

>  <distance_score>  (44) 
None

>  <energy_score>  (44) 
None

>  <compound>  (44) 
HCEIEGOMGWEGOJ-UHFFFAOYSA-N

>  <compound_id>  (44) 
40

>  <target>  (44) 
TRIM21

>  <tags>  (44) 
['Main status', 'GOOD count', 'hits', 'BAD count', '[Other] upload_1 2025-03-17', 'MEDIOCRE count', 'iter1_hits']

>  <inspirations>  (44) 
None

>  <subsites>  (44) 
None

>  <reference>  (44) 


>  <observation_longname>  (44) 
TRIM21-x0472_B_201_v1

>  <ConformerSites alias>  (44) 
1a - m0031/B/401

>  <CanonSites alias>  (44) 
1 - m0031/B/401/1

>  <CrystalformSites alias>  (44) 
F1c - m0611/B/301

>  <Quatassemblies alias>  (44) 
A1 - monomer

>  <Crystalforms alias>  (44) 
F1 - xtalform1

>  <ConformerSites upload name>  (44) 
1a - TRIM21-x0031/B/401

>  <CanonSites upload name>  (44) 
1 - TRIM21-x0031/B/401/1

>  <CrystalformSites upload name>  (44) 
F1c - TRIM21-x0611/B/301/1

>  <Quatassemblies upload name>  (44) 
A1 - monomer

>  <Crystalforms upload name>  (44) 
F1 - xtalform1

>  <ConformerSites short tag>  (44) 
1a - m0031/B/401

>  <CanonSites short tag>  (44) 
1 - m0031/B/401/1

>  <CrystalformSites short tag>  (44) 
F1c - m0611/B/301

>  <Quatassemblies short tag>  (44) 
A1 - monomer

>  <Crystalforms short tag>  (44) 
F1 - xtalform1

>  <Centroid res>  (44) 
TRIM21-x0031/B/39/B_v1

>  <Experiment code>  (44) 
TRIM21-x0472

>  <Pose>  (44) 
m0472a

>  <exports>  (44) 
/opt/xchem-fragalysis-2/maxwin/TRIM21_FFF/knitwork/iter1/iter1_hits.sdf

$$$$
m0474a
     RDKit          3D

 12 12  0  0  0  0  0  0  0  0999 V2000
  -24.6920  -26.2770  -18.4030 C   0  0  0  0  0  0  0  0  0  0  0  0
  -25.4400  -28.4150  -21.4440 C   0  0  0  0  0  0  0  0  0  0  0  0
  -26.0360  -28.3920  -22.8160 C   0  0  0  0  0  0  0  0  0  0  0  0
  -27.2610  -28.9360  -23.2260 C   0  0  0  0  0  0  0  0  0  0  0  0
  -27.3810  -28.6530  -24.5280 C   0  0  0  0  0  0  0  0  0  0  0  0
  -28.4050  -28.9310  -25.5580 C   0  0  0  0  0  0  0  0  0  0  0  0
  -25.5540  -27.2960  -18.9810 N   0  0  0  0  0  0  0  0  0  0  0  0
  -25.4500  -27.7800  -23.8030 N   0  0  0  0  0  0  0  0  0  0  0  0
  -27.5120  -27.2210  -20.4490 O   0  0  0  0  0  0  0  0  0  0  0  0
  -25.5230  -25.8530  -20.9800 O   0  0  0  0  0  0  0  0  0  0  0  0
  -26.3050  -27.9450  -24.9230 O   0  0  0  0  0  0  0  0  0  0  0  0
  -26.0890  -27.0670  -20.4820 S   0  0  2  0  0  0  0  0  0  0  0  0
  3  2  1  0
  4  3  1  0
  5  4  2  0
  6  5  1  0
  7  1  1  0
  8  3  2  0
 11  5  1  0
 11  8  1  0
 12  9  2  0
 12  7  1  0
 12  2  1  6
 12 10  2  0
M  END
>  <id>  (45) 
45

>  <inchikey>  (45) 
SDSNLNFNGILSAL-UHFFFAOYSA-N

>  <alias>  (45) 
m0474a

>  <smiles>  (45) 
CNS(=O)(=O)Cc1cc(C)on1

>  <path>  (45) 
/opt/xchem-fragalysis-2/maxwin/BulkDock/TARGETS/TRIM21/aligned_files/m0474a/m0474a.pdb

>  <distance_score>  (45) 
None

>  <energy_score>  (45) 
None

>  <compound>  (45) 
SDSNLNFNGILSAL-UHFFFAOYSA-N

>  <compound_id>  (45) 
41

>  <target>  (45) 
TRIM21

>  <tags>  (45) 
['Main status', 'GOOD count', 'hits', 'BAD count', '[Other] upload_1 2025-03-17', 'MEDIOCRE count', 'iter1_hits']

>  <inspirations>  (45) 
None

>  <subsites>  (45) 
None

>  <reference>  (45) 


>  <observation_longname>  (45) 
TRIM21-x0474_B_302_v1

>  <ConformerSites alias>  (45) 
3a - m0176/B/302

>  <CanonSites alias>  (45) 
3 - m0176/B/302/1

>  <CrystalformSites alias>  (45) 
F1e - m0176/B/302

>  <Quatassemblies alias>  (45) 
A1 - monomer

>  <Crystalforms alias>  (45) 
F1 - xtalform1

>  <ConformerSites upload name>  (45) 
3a - TRIM21-x0176/B/302

>  <CanonSites upload name>  (45) 
3 - TRIM21-x0176/B/302/1

>  <CrystalformSites upload name>  (45) 
F1e - TRIM21-x0176/B/302/1

>  <Quatassemblies upload name>  (45) 
A1 - monomer

>  <Crystalforms upload name>  (45) 
F1 - xtalform1

>  <ConformerSites short tag>  (45) 
3a - m0176/B/302

>  <CanonSites short tag>  (45) 
3 - m0176/B/302/1

>  <CrystalformSites short tag>  (45) 
F1e - m0176/B/302

>  <Quatassemblies short tag>  (45) 
A1 - monomer

>  <Crystalforms short tag>  (45) 
F1 - xtalform1

>  <Centroid res>  (45) 
TRIM21-x0176/B/101/B_v1

>  <Experiment code>  (45) 
TRIM21-x0474

>  <Pose>  (45) 
m0474a

>  <exports>  (45) 
/opt/xchem-fragalysis-2/maxwin/TRIM21_FFF/knitwork/iter1/iter1_hits.sdf

$$$$
m0501a
     RDKit          3D

 19 20  0  0  0  0  0  0  0  0999 V2000
  -49.9450   -7.0150  -25.5760 C   0  0  0  0  0  0  0  0  0  0  0  0
  -45.1280   -7.6790  -29.6190 C   0  0  0  0  0  0  0  0  0  0  0  0
  -44.0200   -8.2500  -29.0140 C   0  0  0  0  0  0  0  0  0  0  0  0
  -42.9960   -7.4300  -28.6500 C   0  0  0  0  0  0  0  0  0  0  0  0
  -43.0170   -6.0770  -28.8330 C   0  0  0  0  0  0  0  0  0  0  0  0
  -44.1390   -5.5240  -29.4250 C   0  0  0  0  0  0  0  0  0  0  0  0
  -48.9020   -6.1560  -26.3030 C   0  0  1  0  0  0  0  0  0  0  0  0
  -47.4450   -6.4020  -25.8980 C   0  0  0  0  0  0  0  0  0  0  0  0
  -46.4850   -5.4550  -26.6150 C   0  0  0  0  0  0  0  0  0  0  0  0
  -47.1610   -4.7390  -27.7660 C   0  0  0  0  0  0  0  0  0  0  0  0
  -49.0660   -6.2930  -27.8130 C   0  0  0  0  0  0  0  0  0  0  0  0
  -47.7070   -6.1150  -29.7990 C   0  0  0  0  0  0  0  0  0  0  0  0
  -46.4150   -5.6960  -30.4810 C   0  0  0  0  0  0  0  0  0  0  0  0
  -45.1980   -6.3110  -29.8450 C   0  0  0  0  0  0  0  0  0  0  0  0
  -41.9050   -7.9760  -28.0530 F   0  0  0  0  0  0  0  0  0  0  0  0
  -47.9460   -5.7010  -28.5400 N   0  0  0  0  0  0  0  0  0  0  0  0
  -51.0320   -7.1560  -26.0950 O   0  0  0  0  0  0  0  0  0  0  0  0
  -49.6630   -7.5010  -24.5020 O   0  0  0  0  0  0  0  0  0  0  0  0
  -48.4650   -6.8980  -30.3630 O   0  0  0  0  0  0  0  0  0  0  0  0
  3  2  2  0
  4  3  1  0
  5  4  2  0
  6  5  1  0
  7  1  1  1
  8  7  1  0
  9  8  1  0
 10  9  1  0
 11  7  1  0
 13 12  1  0
 14 13  1  0
 14  6  2  0
 14  2  1  0
 15  4  1  0
 16 11  1  0
 16 12  1  0
 16 10  1  0
 17  1  2  0
 18  1  1  0
 19 12  2  0
M  CHG  1  18  -1
M  END
>  <id>  (46) 
46

>  <inchikey>  (46) 
ISRBHDOSFNPUED-NSHDSACASA-M

>  <alias>  (46) 
m0501a

>  <smiles>  (46) 
O=C([O-])[C@H]1CCCN(C(=O)Cc2ccc(F)cc2)C1

>  <path>  (46) 
/opt/xchem-fragalysis-2/maxwin/BulkDock/TARGETS/TRIM21/aligned_files/m0501a/m0501a.pdb

>  <distance_score>  (46) 
None

>  <energy_score>  (46) 
None

>  <compound>  (46) 
ISRBHDOSFNPUED-UHFFFAOYSA-M

>  <compound_id>  (46) 
42

>  <target>  (46) 
TRIM21

>  <tags>  (46) 
['Main status', 'GOOD count', 'hits', 'BAD count', '[Other] upload_1 2025-03-17', 'MEDIOCRE count', 'iter1_hits']

>  <inspirations>  (46) 
None

>  <subsites>  (46) 
None

>  <reference>  (46) 


>  <observation_longname>  (46) 
TRIM21-x0501_B_302_v1

>  <ConformerSites alias>  (46) 
1a - m0031/B/401

>  <CanonSites alias>  (46) 
1 - m0031/B/401/1

>  <CrystalformSites alias>  (46) 
F1c - m0611/B/301

>  <Quatassemblies alias>  (46) 
A1 - monomer

>  <Crystalforms alias>  (46) 
F1 - xtalform1

>  <ConformerSites upload name>  (46) 
1a - TRIM21-x0031/B/401

>  <CanonSites upload name>  (46) 
1 - TRIM21-x0031/B/401/1

>  <CrystalformSites upload name>  (46) 
F1c - TRIM21-x0611/B/301/1

>  <Quatassemblies upload name>  (46) 
A1 - monomer

>  <Crystalforms upload name>  (46) 
F1 - xtalform1

>  <ConformerSites short tag>  (46) 
1a - m0031/B/401

>  <CanonSites short tag>  (46) 
1 - m0031/B/401/1

>  <CrystalformSites short tag>  (46) 
F1c - m0611/B/301

>  <Quatassemblies short tag>  (46) 
A1 - monomer

>  <Crystalforms short tag>  (46) 
F1 - xtalform1

>  <Centroid res>  (46) 
TRIM21-x0031/B/39/B_v1

>  <Experiment code>  (46) 
TRIM21-x0501

>  <Pose>  (46) 
m0501a

>  <exports>  (46) 
/opt/xchem-fragalysis-2/maxwin/TRIM21_FFF/knitwork/iter1/iter1_hits.sdf

$$$$
m0514a
     RDKit          3D

 15 16  0  0  0  0  0  0  0  0999 V2000
  -46.5640   -2.3070  -22.5860 C   0  0  0  0  0  0  0  0  0  0  0  0
  -45.0340   -7.2550  -27.0460 C   0  0  0  0  0  0  0  0  0  0  0  0
  -45.1220   -3.9650  -23.6800 C   0  0  0  0  0  0  0  0  0  0  0  0
  -47.1990   -3.6410  -24.6450 C   0  0  0  0  0  0  0  0  0  0  0  0
  -46.3420   -4.3140  -25.7240 C   0  0  0  0  0  0  0  0  0  0  0  0
  -44.9670   -4.4970  -25.0980 C   0  0  2  0  0  0  0  0  0  0  0  0
  -44.1560   -6.4970  -26.2840 C   0  0  0  0  0  0  0  0  0  0  0  0
  -42.8150   -6.4380  -26.6470 C   0  0  0  0  0  0  0  0  0  0  0  0
  -42.3650   -7.0840  -27.7910 C   0  0  0  0  0  0  0  0  0  0  0  0
  -43.2300   -7.8270  -28.5660 C   0  0  0  0  0  0  0  0  0  0  0  0
  -44.5440   -7.8920  -28.1720 C   0  0  0  0  0  0  0  0  0  0  0  0
  -45.4090   -8.6150  -28.9230 F   0  0  0  0  0  0  0  0  0  0  0  0
  -46.2530   -3.2850  -23.6150 N   0  0  0  0  0  0  0  0  0  0  0  0
  -44.5950   -5.8890  -25.1310 O   0  0  0  0  0  0  0  0  0  0  0  0
  -44.3280   -4.1180  -22.7500 O   0  0  0  0  0  0  0  0  0  0  0  0
  5  4  1  0
  6  5  1  0
  6  3  1  0
  7  2  2  0
  8  7  1  0
  9  8  2  0
 10  9  1  0
 11  2  1  0
 11 10  2  0
 12 11  1  0
 13  4  1  0
 13  3  1  0
 13  1  1  0
 14  7  1  0
  6 14  1  1
 15  3  2  0
M  END
>  <id>  (47) 
47

>  <inchikey>  (47) 
JWLJWMCLUCDWSD-JTQLQIEISA-N

>  <alias>  (47) 
m0514a

>  <smiles>  (47) 
CN1CC[C@H](Oc2cccc(F)c2)C1=O

>  <path>  (47) 
/opt/xchem-fragalysis-2/maxwin/BulkDock/TARGETS/TRIM21/aligned_files/m0514a/m0514a.pdb

>  <distance_score>  (47) 
None

>  <energy_score>  (47) 
None

>  <compound>  (47) 
JWLJWMCLUCDWSD-UHFFFAOYSA-N

>  <compound_id>  (47) 
43

>  <target>  (47) 
TRIM21

>  <tags>  (47) 
['Main status', 'GOOD count', 'hits', 'BAD count', '[Other] upload_1 2025-03-17', 'MEDIOCRE count', 'iter1_hits']

>  <inspirations>  (47) 
None

>  <subsites>  (47) 
None

>  <reference>  (47) 


>  <observation_longname>  (47) 
TRIM21-x0514_B_302_v1

>  <ConformerSites alias>  (47) 
1a - m0031/B/401

>  <CanonSites alias>  (47) 
1 - m0031/B/401/1

>  <CrystalformSites alias>  (47) 
F1c - m0611/B/301

>  <Quatassemblies alias>  (47) 
A1 - monomer

>  <Crystalforms alias>  (47) 
F1 - xtalform1

>  <ConformerSites upload name>  (47) 
1a - TRIM21-x0031/B/401

>  <CanonSites upload name>  (47) 
1 - TRIM21-x0031/B/401/1

>  <CrystalformSites upload name>  (47) 
F1c - TRIM21-x0611/B/301/1

>  <Quatassemblies upload name>  (47) 
A1 - monomer

>  <Crystalforms upload name>  (47) 
F1 - xtalform1

>  <ConformerSites short tag>  (47) 
1a - m0031/B/401

>  <CanonSites short tag>  (47) 
1 - m0031/B/401/1

>  <CrystalformSites short tag>  (47) 
F1c - m0611/B/301

>  <Quatassemblies short tag>  (47) 
A1 - monomer

>  <Crystalforms short tag>  (47) 
F1 - xtalform1

>  <Centroid res>  (47) 
TRIM21-x0031/B/39/B_v1

>  <Experiment code>  (47) 
TRIM21-x0514

>  <Pose>  (47) 
m0514a

>  <exports>  (47) 
/opt/xchem-fragalysis-2/maxwin/TRIM21_FFF/knitwork/iter1/iter1_hits.sdf

$$$$
m0519a
     RDKit          3D

 15 16  0  0  0  0  0  0  0  0999 V2000
  -43.2280  -21.8380  -15.2600 C   0  0  0  0  0  0  0  0  0  0  0  0
  -37.7810  -15.4050  -19.2730 C   0  0  0  0  0  0  0  0  0  0  0  0
  -38.4810  -13.8480  -17.7560 C   0  0  0  0  0  0  0  0  0  0  0  0
  -39.3990  -14.7130  -17.2030 C   0  0  0  0  0  0  0  0  0  0  0  0
  -43.0330  -21.0920  -16.5510 C   0  0  0  0  0  0  0  0  0  0  0  0
  -42.5680  -18.8620  -17.5610 C   0  0  1  0  0  0  0  0  0  0  0  0
  -42.8450  -17.3630  -17.3960 C   0  0  0  0  0  0  0  0  0  0  0  0
  -41.7470  -16.5920  -16.6760 C   0  0  0  0  0  0  0  0  0  0  0  0
  -40.1480  -18.3790  -17.1590 C   0  0  0  0  0  0  0  0  0  0  0  0
  -41.1400  -19.0990  -18.0410 C   0  0  0  0  0  0  0  0  0  0  0  0
  -39.4990  -16.0030  -17.7370 C   0  0  0  0  0  0  0  0  0  0  0  0
  -38.6570  -16.3540  -18.8000 C   0  0  0  0  0  0  0  0  0  0  0  0
  -42.8450  -19.6480  -16.3450 N   0  0  0  0  0  0  0  0  0  0  0  0
  -40.4070  -16.9290  -17.2170 N   0  0  0  0  0  0  0  0  0  0  0  0
  -37.6820  -14.1650  -18.7790 N   0  0  0  0  0  0  0  0  0  0  0  0
  4  3  1  0
  5  1  1  0
  7  6  1  0
  8  7  1  0
 10  9  1  0
 10  6  1  0
 11  4  2  0
 12 11  1  0
 12  2  2  0
  6 13  1  1
 13  5  1  0
 14  9  1  0
 14  8  1  0
 14 11  1  0
 15  3  2  0
 15  2  1  0
M  END
>  <id>  (48) 
48

>  <inchikey>  (48) 
SZIYLERKSNSGON-UHFFFAOYSA-N

>  <alias>  (48) 
m0519a

>  <smiles>  (48) 
CCNC1CCN(c2ccncc2)CC1

>  <path>  (48) 
/opt/xchem-fragalysis-2/maxwin/BulkDock/TARGETS/TRIM21/aligned_files/m0519a/m0519a.pdb

>  <distance_score>  (48) 
None

>  <energy_score>  (48) 
None

>  <compound>  (48) 
SZIYLERKSNSGON-UHFFFAOYSA-N

>  <compound_id>  (48) 
44

>  <target>  (48) 
TRIM21

>  <tags>  (48) 
['Main status', 'GOOD count', 'hits', 'BAD count', '[Other] upload_1 2025-03-17', 'MEDIOCRE count', 'iter1_hits']

>  <inspirations>  (48) 
None

>  <subsites>  (48) 
None

>  <reference>  (48) 


>  <observation_longname>  (48) 
TRIM21-x0519_B_302_v1

>  <ConformerSites alias>  (48) 
2a - m0043/B/302

>  <CanonSites alias>  (48) 
2 - m0043/B/302/1

>  <CrystalformSites alias>  (48) 
F1d - m0043/B/302

>  <Quatassemblies alias>  (48) 
A1 - monomer

>  <Crystalforms alias>  (48) 
F1 - xtalform1

>  <ConformerSites upload name>  (48) 
2a - TRIM21-x0043/B/302

>  <CanonSites upload name>  (48) 
2 - TRIM21-x0043/B/302/1

>  <CrystalformSites upload name>  (48) 
F1d - TRIM21-x0043/B/302/1

>  <Quatassemblies upload name>  (48) 
A1 - monomer

>  <Crystalforms upload name>  (48) 
F1 - xtalform1

>  <ConformerSites short tag>  (48) 
2a - m0043/B/302

>  <CanonSites short tag>  (48) 
2 - m0043/B/302/1

>  <CrystalformSites short tag>  (48) 
F1d - m0043/B/302

>  <Quatassemblies short tag>  (48) 
A1 - monomer

>  <Crystalforms short tag>  (48) 
F1 - xtalform1

>  <Centroid res>  (48) 
TRIM21-x0043/B/109/B_v1

>  <Experiment code>  (48) 
TRIM21-x0519

>  <Pose>  (48) 
m0519a

>  <exports>  (48) 
/opt/xchem-fragalysis-2/maxwin/TRIM21_FFF/knitwork/iter1/iter1_hits.sdf

$$$$
m0533a
     RDKit          3D

 14 15  0  0  0  0  0  0  0  0999 V2000
  -49.2200  -10.6960  -32.8870 C   0  0  0  0  0  0  0  0  0  0  0  0
  -46.9890  -11.5830  -32.5520 C   0  0  0  0  0  0  0  0  0  0  0  0
  -45.7900  -10.8320  -32.0420 C   0  0  0  0  0  0  0  0  0  0  0  0
  -46.9050  -10.5530  -29.9390 C   0  0  1  0  0  0  0  0  0  0  0  0
  -46.6190   -9.4930  -28.8900 C   0  0  0  0  0  0  0  0  0  0  0  0
  -44.6500   -7.9830  -28.8440 C   0  0  0  0  0  0  0  0  0  0  0  0
  -44.4820   -5.7830  -28.9380 C   0  0  0  0  0  0  0  0  0  0  0  0
  -43.1760   -6.0740  -29.0200 C   0  0  0  0  0  0  0  0  0  0  0  0
  -47.9690  -10.0770  -30.9110 C   0  0  0  0  0  0  0  0  0  0  0  0
  -48.2360  -11.1300  -31.8950 N   0  0  0  0  0  0  0  0  0  0  0  0
  -45.2000   -9.2070  -28.7100 N   0  0  0  0  0  0  0  0  0  0  0  0
  -45.3350   -6.8690  -29.0220 N   0  0  0  0  0  0  0  0  0  0  0  0
  -45.6960  -10.8730  -30.6230 O   0  0  0  0  0  0  0  0  0  0  0  0
  -42.9220   -7.7620  -28.7620 S   0  0  0  0  0  0  0  0  0  0  0  0
  3  2  1  0
  4  5  1  1
  8  7  2  0
  9  4  1  0
 10  1  1  0
 10  2  1  0
 10  9  1  0
 11  6  1  0
 11  5  1  0
 12  7  1  0
 12  6  2  0
 13  4  1  0
 13  3  1  0
 14  6  1  0
 14  8  1  0
M  END
>  <id>  (49) 
49

>  <inchikey>  (49) 
ZGXKOJCCDSYBKF-QMMMGPOBSA-N

>  <alias>  (49) 
m0533a

>  <smiles>  (49) 
CN1CCO[C@@H](CNc2nccs2)C1

>  <path>  (49) 
/opt/xchem-fragalysis-2/maxwin/BulkDock/TARGETS/TRIM21/aligned_files/m0533a/m0533a.pdb

>  <distance_score>  (49) 
None

>  <energy_score>  (49) 
None

>  <compound>  (49) 
ZGXKOJCCDSYBKF-UHFFFAOYSA-N

>  <compound_id>  (49) 
45

>  <target>  (49) 
TRIM21

>  <tags>  (49) 
['Main status', 'GOOD count', 'hits', 'BAD count', '[Other] upload_1 2025-03-17', 'MEDIOCRE count', 'iter1_hits']

>  <inspirations>  (49) 
None

>  <subsites>  (49) 
None

>  <reference>  (49) 


>  <observation_longname>  (49) 
TRIM21-x0533_B_301_v1

>  <ConformerSites alias>  (49) 
1a - m0031/B/401

>  <CanonSites alias>  (49) 
1 - m0031/B/401/1

>  <CrystalformSites alias>  (49) 
F1c - m0611/B/301

>  <Quatassemblies alias>  (49) 
A1 - monomer

>  <Crystalforms alias>  (49) 
F1 - xtalform1

>  <ConformerSites upload name>  (49) 
1a - TRIM21-x0031/B/401

>  <CanonSites upload name>  (49) 
1 - TRIM21-x0031/B/401/1

>  <CrystalformSites upload name>  (49) 
F1c - TRIM21-x0611/B/301/1

>  <Quatassemblies upload name>  (49) 
A1 - monomer

>  <Crystalforms upload name>  (49) 
F1 - xtalform1

>  <ConformerSites short tag>  (49) 
1a - m0031/B/401

>  <CanonSites short tag>  (49) 
1 - m0031/B/401/1

>  <CrystalformSites short tag>  (49) 
F1c - m0611/B/301

>  <Quatassemblies short tag>  (49) 
A1 - monomer

>  <Crystalforms short tag>  (49) 
F1 - xtalform1

>  <Centroid res>  (49) 
TRIM21-x0031/B/39/B_v1

>  <Experiment code>  (49) 
TRIM21-x0533

>  <Pose>  (49) 
m0533a

>  <exports>  (49) 
/opt/xchem-fragalysis-2/maxwin/TRIM21_FFF/knitwork/iter1/iter1_hits.sdf

$$$$
m0536a
     RDKit          3D

 12 13  0  0  0  0  0  0  0  0999 V2000
  -47.1280   -4.7010  -26.1730 C   0  0  0  0  0  0  0  0  0  0  0  0
  -46.4730   -5.1800  -27.4250 C   0  0  0  0  0  0  0  0  0  0  0  0
  -46.7620   -6.5050  -30.7000 C   0  0  0  0  0  0  0  0  0  0  0  0
  -45.0090   -5.7780  -29.0160 C   0  0  0  0  0  0  0  0  0  0  0  0
  -43.7340   -5.9850  -29.5850 C   0  0  0  0  0  0  0  0  0  0  0  0
  -43.8990   -4.9630  -27.0530 C   0  0  0  0  0  0  0  0  0  0  0  0
  -45.0860   -5.2640  -27.7200 C   0  0  0  0  0  0  0  0  0  0  0  0
  -47.1810   -5.6240  -28.4530 N   0  0  0  0  0  0  0  0  0  0  0  0
  -46.2930   -5.9930  -29.4250 N   0  0  0  0  0  0  0  0  0  0  0  0
  -42.6450   -5.6750  -28.8990 N   0  0  0  0  0  0  0  0  0  0  0  0
  -42.7340   -5.1670  -27.6420 N   0  0  0  0  0  0  0  0  0  0  0  0
  -43.5800   -6.4850  -30.8130 O   0  0  0  0  0  0  0  0  0  0  0  0
  2  1  1  0
  5  4  1  0
  7  4  2  0
  7  2  1  0
  7  6  1  0
  8  2  2  0
  9  8  1  0
  9  4  1  0
  9  3  1  0
 10  5  2  0
 11  6  2  0
 11 10  1  0
 12  5  1  0
M  END
>  <id>  (50) 
50

>  <inchikey>  (50) 
OPCFDCSZKUXVME-UHFFFAOYSA-N

>  <alias>  (50) 
m0536a

>  <smiles>  (50) 
Cc1nn(C)c2c(O)nncc12

>  <path>  (50) 
/opt/xchem-fragalysis-2/maxwin/BulkDock/TARGETS/TRIM21/aligned_files/m0536a/m0536a.pdb

>  <distance_score>  (50) 
None

>  <energy_score>  (50) 
None

>  <compound>  (50) 
OPCFDCSZKUXVME-UHFFFAOYSA-N

>  <compound_id>  (50) 
46

>  <target>  (50) 
TRIM21

>  <tags>  (50) 
['Main status', 'GOOD count', 'hits', 'BAD count', '[Other] upload_1 2025-03-17', 'MEDIOCRE count', 'iter1_hits']

>  <inspirations>  (50) 
None

>  <subsites>  (50) 
None

>  <reference>  (50) 


>  <observation_longname>  (50) 
TRIM21-x0536_B_302_v1

>  <ConformerSites alias>  (50) 
1a - m0031/B/401

>  <CanonSites alias>  (50) 
1 - m0031/B/401/1

>  <CrystalformSites alias>  (50) 
F1c - m0611/B/301

>  <Quatassemblies alias>  (50) 
A1 - monomer

>  <Crystalforms alias>  (50) 
F1 - xtalform1

>  <ConformerSites upload name>  (50) 
1a - TRIM21-x0031/B/401

>  <CanonSites upload name>  (50) 
1 - TRIM21-x0031/B/401/1

>  <CrystalformSites upload name>  (50) 
F1c - TRIM21-x0611/B/301/1

>  <Quatassemblies upload name>  (50) 
A1 - monomer

>  <Crystalforms upload name>  (50) 
F1 - xtalform1

>  <ConformerSites short tag>  (50) 
1a - m0031/B/401

>  <CanonSites short tag>  (50) 
1 - m0031/B/401/1

>  <CrystalformSites short tag>  (50) 
F1c - m0611/B/301

>  <Quatassemblies short tag>  (50) 
A1 - monomer

>  <Crystalforms short tag>  (50) 
F1 - xtalform1

>  <Centroid res>  (50) 
TRIM21-x0031/B/39/B_v1

>  <Experiment code>  (50) 
TRIM21-x0536

>  <Pose>  (50) 
m0536a

>  <exports>  (50) 
/opt/xchem-fragalysis-2/maxwin/TRIM21_FFF/knitwork/iter1/iter1_hits.sdf

$$$$
m0549a
     RDKit          3D

 13 13  0  0  0  0  0  0  0  0999 V2000
  -46.3500   -1.7600  -22.2300 C   0  0  0  0  0  0  0  0  0  0  0  0
  -45.0060   -3.8830  -25.5290 C   0  0  0  0  0  0  0  0  0  0  0  0
  -45.7670   -4.6170  -26.6510 C   0  0  0  0  0  0  0  0  0  0  0  0
  -44.8610   -5.6650  -27.3260 C   0  0  0  0  0  0  0  0  0  0  0  0
  -43.5640   -5.3200  -27.7410 C   0  0  0  0  0  0  0  0  0  0  0  0
  -42.7440   -6.2810  -28.3280 C   0  0  0  0  0  0  0  0  0  0  0  0
  -43.2100   -7.5870  -28.4930 C   0  0  0  0  0  0  0  0  0  0  0  0
  -44.4990   -7.9250  -28.0790 C   0  0  0  0  0  0  0  0  0  0  0  0
  -45.3250   -6.9690  -27.4820 C   0  0  0  0  0  0  0  0  0  0  0  0
  -45.8760   -3.0990  -24.6450 N   0  0  0  0  0  0  0  0  0  0  0  0
  -43.9620   -3.0130  -22.8950 O   0  0  0  0  0  0  0  0  0  0  0  0
  -44.5000   -1.1040  -24.0130 O   0  0  0  0  0  0  0  0  0  0  0  0
  -45.1310   -2.2800  -23.3900 S   0  0  2  0  0  0  0  0  0  0  0  0
  3  2  1  0
  4  3  1  0
  5  4  2  0
  6  5  1  0
  7  6  2  0
  8  7  1  0
  9  8  2  0
  9  4  1  0
 10  2  1  0
 13 12  2  0
 13 11  2  0
 13 10  1  0
 13  1  1  1
M  END
>  <id>  (51) 
51

>  <inchikey>  (51) 
JGDDFCYMSLNOGJ-UHFFFAOYSA-N

>  <alias>  (51) 
m0549a

>  <smiles>  (51) 
CS(=O)(=O)NCCc1ccccc1

>  <path>  (51) 
/opt/xchem-fragalysis-2/maxwin/BulkDock/TARGETS/TRIM21/aligned_files/m0549a/m0549a.pdb

>  <distance_score>  (51) 
None

>  <energy_score>  (51) 
None

>  <compound>  (51) 
JGDDFCYMSLNOGJ-UHFFFAOYSA-N

>  <compound_id>  (51) 
47

>  <target>  (51) 
TRIM21

>  <tags>  (51) 
['Main status', 'GOOD count', 'hits', 'BAD count', '[Other] upload_1 2025-03-17', 'MEDIOCRE count', 'iter1_hits']

>  <inspirations>  (51) 
None

>  <subsites>  (51) 
None

>  <reference>  (51) 


>  <observation_longname>  (51) 
TRIM21-x0549_B_201_v1

>  <ConformerSites alias>  (51) 
1a - m0031/B/401

>  <CanonSites alias>  (51) 
1 - m0031/B/401/1

>  <CrystalformSites alias>  (51) 
F1c - m0611/B/301

>  <Quatassemblies alias>  (51) 
A1 - monomer

>  <Crystalforms alias>  (51) 
F1 - xtalform1

>  <ConformerSites upload name>  (51) 
1a - TRIM21-x0031/B/401

>  <CanonSites upload name>  (51) 
1 - TRIM21-x0031/B/401/1

>  <CrystalformSites upload name>  (51) 
F1c - TRIM21-x0611/B/301/1

>  <Quatassemblies upload name>  (51) 
A1 - monomer

>  <Crystalforms upload name>  (51) 
F1 - xtalform1

>  <ConformerSites short tag>  (51) 
1a - m0031/B/401

>  <CanonSites short tag>  (51) 
1 - m0031/B/401/1

>  <CrystalformSites short tag>  (51) 
F1c - m0611/B/301

>  <Quatassemblies short tag>  (51) 
A1 - monomer

>  <Crystalforms short tag>  (51) 
F1 - xtalform1

>  <Centroid res>  (51) 
TRIM21-x0031/B/39/B_v1

>  <Experiment code>  (51) 
TRIM21-x0549

>  <Pose>  (51) 
m0549a

>  <exports>  (51) 
/opt/xchem-fragalysis-2/maxwin/TRIM21_FFF/knitwork/iter1/iter1_hits.sdf

$$$$
m0573a
     RDKit          3D

 15 16  0  0  0  0  0  0  0  0999 V2000
  -46.9760   -5.8030  -25.5510 C   0  0  0  0  0  0  0  0  0  0  0  0
  -46.1710   -8.4780  -30.3120 C   0  0  0  0  0  0  0  0  0  0  0  0
  -45.8290   -4.1500  -26.9730 C   0  0  0  0  0  0  0  0  0  0  0  0
  -46.6130   -6.3450  -27.8510 C   0  0  0  0  0  0  0  0  0  0  0  0
  -44.8410   -5.5360  -29.3460 C   0  0  0  0  0  0  0  0  0  0  0  0
  -43.4170   -5.9460  -29.5980 C   0  0  0  0  0  0  0  0  0  0  0  0
  -43.8590   -8.2410  -29.3300 C   0  0  0  0  0  0  0  0  0  0  0  0
  -45.3450   -8.0490  -29.0880 C   0  0  2  0  0  0  0  0  0  0  0  0
  -45.8000   -9.0700  -28.0070 C   0  0  0  0  0  0  0  0  0  0  0  0
  -46.8230   -9.9290  -28.7050 C   0  0  0  0  0  0  0  0  0  0  0  0
  -46.4520   -5.4690  -26.8800 N   0  0  0  0  0  0  0  0  0  0  0  0
  -45.6110   -6.6160  -28.7090 N   0  0  0  0  0  0  0  0  0  0  0  0
  -47.6640   -6.9700  -27.9440 O   0  0  0  0  0  0  0  0  0  0  0  0
  -43.3540   -7.2310  -30.2010 O   0  0  0  0  0  0  0  0  0  0  0  0
  -46.4840   -9.8620  -30.0840 O   0  0  0  0  0  0  0  0  0  0  0  0
  6  5  1  0
  8  7  1  6
  8  2  1  0
  9  8  1  0
 10  9  1  0
 11  4  1  0
 11  1  1  0
 11  3  1  0
 12  8  1  0
 12  5  1  0
 12  4  1  0
 13  4  2  0
 14  7  1  0
 14  6  1  0
 15 10  1  0
 15  2  1  0
M  END
>  <id>  (52) 
52

>  <inchikey>  (52) 
RZCFMNWZMOAPRJ-JTQLQIEISA-N

>  <alias>  (52) 
m0573a

>  <smiles>  (52) 
CN(C)C(=O)N1CCOC[C@@]12CCOC2

>  <path>  (52) 
/opt/xchem-fragalysis-2/maxwin/BulkDock/TARGETS/TRIM21/aligned_files/m0573a/m0573a.pdb

>  <distance_score>  (52) 
None

>  <energy_score>  (52) 
None

>  <compound>  (52) 
RZCFMNWZMOAPRJ-UHFFFAOYSA-N

>  <compound_id>  (52) 
48

>  <target>  (52) 
TRIM21

>  <tags>  (52) 
['Main status', 'GOOD count', 'hits', 'BAD count', '[Other] upload_1 2025-03-17', 'MEDIOCRE count', 'iter1_hits']

>  <inspirations>  (52) 
None

>  <subsites>  (52) 
None

>  <reference>  (52) 


>  <observation_longname>  (52) 
TRIM21-x0573_B_301_v1

>  <ConformerSites alias>  (52) 
1a - m0031/B/401

>  <CanonSites alias>  (52) 
1 - m0031/B/401/1

>  <CrystalformSites alias>  (52) 
F1c - m0611/B/301

>  <Quatassemblies alias>  (52) 
A1 - monomer

>  <Crystalforms alias>  (52) 
F1 - xtalform1

>  <ConformerSites upload name>  (52) 
1a - TRIM21-x0031/B/401

>  <CanonSites upload name>  (52) 
1 - TRIM21-x0031/B/401/1

>  <CrystalformSites upload name>  (52) 
F1c - TRIM21-x0611/B/301/1

>  <Quatassemblies upload name>  (52) 
A1 - monomer

>  <Crystalforms upload name>  (52) 
F1 - xtalform1

>  <ConformerSites short tag>  (52) 
1a - m0031/B/401

>  <CanonSites short tag>  (52) 
1 - m0031/B/401/1

>  <CrystalformSites short tag>  (52) 
F1c - m0611/B/301

>  <Quatassemblies short tag>  (52) 
A1 - monomer

>  <Crystalforms short tag>  (52) 
F1 - xtalform1

>  <Centroid res>  (52) 
TRIM21-x0031/B/39/B_v1

>  <Experiment code>  (52) 
TRIM21-x0573

>  <Pose>  (52) 
m0573a

>  <exports>  (52) 
/opt/xchem-fragalysis-2/maxwin/TRIM21_FFF/knitwork/iter1/iter1_hits.sdf

$$$$
m0579a
     RDKit          3D

 16 17  0  0  0  0  0  0  0  0999 V2000
  -30.1170  -31.0380  -25.2510 C   0  0  0  0  0  0  0  0  0  0  0  0
  -26.8620  -27.3370  -19.5790 C   0  0  0  0  0  0  0  0  0  0  0  0
  -28.7730  -28.9280  -25.5270 C   0  0  0  0  0  0  0  0  0  0  0  0
  -27.3350  -28.7830  -25.0720 C   0  0  0  0  0  0  0  0  0  0  0  0
  -28.0330  -29.5210  -22.8240 C   0  0  0  0  0  0  0  0  0  0  0  0
  -29.4640  -29.5460  -23.3170 C   0  0  0  0  0  0  0  0  0  0  0  0
  -26.3830  -27.6520  -23.1110 C   0  0  0  0  0  0  0  0  0  0  0  0
  -26.2560  -27.3270  -21.6900 C   0  0  0  0  0  0  0  0  0  0  0  0
  -25.3450  -26.5860  -21.0160 C   0  0  0  0  0  0  0  0  0  0  0  0
  -25.7060  -26.6050  -19.6550 C   0  0  0  0  0  0  0  0  0  0  0  0
  -30.9660  -31.6910  -24.4600 N   0  0  0  0  0  0  0  0  0  0  0  0
  -29.5050  -29.9100  -24.7290 N   0  0  0  0  0  0  0  0  0  0  0  0
  -27.2150  -28.5910  -23.6190 N   0  0  0  0  0  0  0  0  0  0  0  0
  -29.8870  -31.4300  -26.3990 O   0  0  0  0  0  0  0  0  0  0  0  0
  -25.6980  -26.9850  -23.8820 O   0  0  0  0  0  0  0  0  0  0  0  0
  -27.2020  -27.7950  -20.8180 O   0  0  0  0  0  0  0  0  0  0  0  0
  4  3  1  0
  6  5  1  0
  8  7  1  0
  9  8  2  0
 10  2  2  0
 10  9  1  0
 11  1  1  0
 12  6  1  0
 12  3  1  0
 12  1  1  0
 13  5  1  0
 13  4  1  0
 13  7  1  0
 14  1  2  0
 15  7  2  0
 16  8  1  0
 16  2  1  0
M  END
>  <id>  (53) 
53

>  <inchikey>  (53) 
TWRIXENNPDTMSQ-UHFFFAOYSA-N

>  <alias>  (53) 
m0579a

>  <smiles>  (53) 
NC(=O)N1CCN(C(=O)c2ccco2)CC1

>  <path>  (53) 
/opt/xchem-fragalysis-2/maxwin/BulkDock/TARGETS/TRIM21/aligned_files/m0579a/m0579a.pdb

>  <distance_score>  (53) 
None

>  <energy_score>  (53) 
None

>  <compound>  (53) 
TWRIXENNPDTMSQ-UHFFFAOYSA-N

>  <compound_id>  (53) 
49

>  <target>  (53) 
TRIM21

>  <tags>  (53) 
['Main status', 'GOOD count', 'hits', 'BAD count', '[Other] upload_1 2025-03-17', 'MEDIOCRE count', 'iter1_hits']

>  <inspirations>  (53) 
None

>  <subsites>  (53) 
None

>  <reference>  (53) 


>  <observation_longname>  (53) 
TRIM21-x0579_B_302_v1

>  <ConformerSites alias>  (53) 
3a - m0176/B/302

>  <CanonSites alias>  (53) 
3 - m0176/B/302/1

>  <CrystalformSites alias>  (53) 
F1e - m0176/B/302

>  <Quatassemblies alias>  (53) 
A1 - monomer

>  <Crystalforms alias>  (53) 
F1 - xtalform1

>  <ConformerSites upload name>  (53) 
3a - TRIM21-x0176/B/302

>  <CanonSites upload name>  (53) 
3 - TRIM21-x0176/B/302/1

>  <CrystalformSites upload name>  (53) 
F1e - TRIM21-x0176/B/302/1

>  <Quatassemblies upload name>  (53) 
A1 - monomer

>  <Crystalforms upload name>  (53) 
F1 - xtalform1

>  <ConformerSites short tag>  (53) 
3a - m0176/B/302

>  <CanonSites short tag>  (53) 
3 - m0176/B/302/1

>  <CrystalformSites short tag>  (53) 
F1e - m0176/B/302

>  <Quatassemblies short tag>  (53) 
A1 - monomer

>  <Crystalforms short tag>  (53) 
F1 - xtalform1

>  <Centroid res>  (53) 
TRIM21-x0176/B/101/B_v1

>  <Experiment code>  (53) 
TRIM21-x0579

>  <Pose>  (53) 
m0579a

>  <exports>  (53) 
/opt/xchem-fragalysis-2/maxwin/TRIM21_FFF/knitwork/iter1/iter1_hits.sdf

$$$$
m0594a
     RDKit          3D

 14 14  0  0  0  0  0  0  0  0999 V2000
  -42.4020   -6.2540  -28.4540 C   0  0  0  0  0  0  0  0  0  0  0  0
  -47.0190   -4.8740  -24.4830 C   0  0  0  0  0  0  0  0  0  0  0  0
  -43.7750   -6.4240  -27.9670 C   0  0  0  0  0  0  0  0  0  0  0  0
  -44.9180   -6.5560  -27.5220 C   0  0  0  0  0  0  0  0  0  0  0  0
  -46.2710   -6.6080  -26.9650 C   0  0  0  0  0  0  0  0  0  0  0  0
  -48.1200   -5.0420  -27.7980 C   0  0  0  0  0  0  0  0  0  0  0  0
  -46.6900   -4.3490  -25.8780 C   0  0  1  0  0  0  0  0  0  0  0  0
  -45.2780   -3.7780  -25.9300 C   0  0  0  0  0  0  0  0  0  0  0  0
  -45.1280   -2.5710  -25.0210 C   0  0  0  0  0  0  0  0  0  0  0  0
  -47.0120   -3.7350  -23.4740 C   0  0  0  0  0  0  0  0  0  0  0  0
  -46.9170   -5.2950  -27.0030 N   0  0  0  0  0  0  0  0  0  0  0  0
  -45.3890   -1.8940  -22.4950 O   0  0  0  0  0  0  0  0  0  0  0  0
  -44.4200   -4.0980  -23.0130 O   0  0  0  0  0  0  0  0  0  0  0  0
  -45.3690   -3.0670  -23.3360 S   0  0  2  0  0  0  0  0  0  0  0  0
  3  1  1  0
  4  3  3  0
  5  4  1  0
  7  2  1  0
  8  7  1  0
  9  8  1  0
 10  2  1  0
 11  5  1  0
 11  6  1  0
  7 11  1  6
 14 13  2  0
 14 12  2  0
 14 10  1  6
 14  9  1  0
M  END
>  <id>  (54) 
54

>  <inchikey>  (54) 
PFUSCIQPWKGDKP-UHFFFAOYSA-N

>  <alias>  (54) 
m0594a

>  <smiles>  (54) 
CC#CCN(C)C1CCS(=O)(=O)CC1

>  <path>  (54) 
/opt/xchem-fragalysis-2/maxwin/BulkDock/TARGETS/TRIM21/aligned_files/m0594a/m0594a.pdb

>  <distance_score>  (54) 
None

>  <energy_score>  (54) 
None

>  <compound>  (54) 
PFUSCIQPWKGDKP-UHFFFAOYSA-N

>  <compound_id>  (54) 
50

>  <target>  (54) 
TRIM21

>  <tags>  (54) 
['Main status', 'GOOD count', 'hits', 'BAD count', '[Other] upload_1 2025-03-17', 'MEDIOCRE count', 'iter1_hits']

>  <inspirations>  (54) 
None

>  <subsites>  (54) 
None

>  <reference>  (54) 


>  <observation_longname>  (54) 
TRIM21-x0594_B_501_v1

>  <ConformerSites alias>  (54) 
1a - m0031/B/401

>  <CanonSites alias>  (54) 
1 - m0031/B/401/1

>  <CrystalformSites alias>  (54) 
F1c - m0611/B/301

>  <Quatassemblies alias>  (54) 
A1 - monomer

>  <Crystalforms alias>  (54) 
F1 - xtalform1

>  <ConformerSites upload name>  (54) 
1a - TRIM21-x0031/B/401

>  <CanonSites upload name>  (54) 
1 - TRIM21-x0031/B/401/1

>  <CrystalformSites upload name>  (54) 
F1c - TRIM21-x0611/B/301/1

>  <Quatassemblies upload name>  (54) 
A1 - monomer

>  <Crystalforms upload name>  (54) 
F1 - xtalform1

>  <ConformerSites short tag>  (54) 
1a - m0031/B/401

>  <CanonSites short tag>  (54) 
1 - m0031/B/401/1

>  <CrystalformSites short tag>  (54) 
F1c - m0611/B/301

>  <Quatassemblies short tag>  (54) 
A1 - monomer

>  <Crystalforms short tag>  (54) 
F1 - xtalform1

>  <Centroid res>  (54) 
TRIM21-x0031/B/39/B_v1

>  <Experiment code>  (54) 
TRIM21-x0594

>  <Pose>  (54) 
m0594a

>  <exports>  (54) 
/opt/xchem-fragalysis-2/maxwin/TRIM21_FFF/knitwork/iter1/iter1_hits.sdf

$$$$
m0594b
     RDKit          3D

 14 14  0  0  0  0  0  0  0  0999 V2000
  -40.5550  -17.2190  -15.9830 C   0  0  0  0  0  0  0  0  0  0  0  0
  -39.8180  -12.9300  -19.4860 C   0  0  0  0  0  0  0  0  0  0  0  0
  -39.7170  -16.2450  -16.6930 C   0  0  0  0  0  0  0  0  0  0  0  0
  -38.9380  -15.4330  -17.2150 C   0  0  0  0  0  0  0  0  0  0  0  0
  -38.0160  -14.4810  -17.8390 C   0  0  0  0  0  0  0  0  0  0  0  0
  -37.4500  -15.9310  -19.7060 C   0  0  0  0  0  0  0  0  0  0  0  0
  -39.1880  -14.2160  -20.0160 C   0  0  1  0  0  0  0  0  0  0  0  0
  -38.9290  -14.1300  -21.5120 C   0  0  0  0  0  0  0  0  0  0  0  0
  -40.2110  -13.9460  -22.3100 C   0  0  0  0  0  0  0  0  0  0  0  0
  -41.1550  -12.6170  -20.1370 C   0  0  0  0  0  0  0  0  0  0  0  0
  -37.9580  -14.6200  -19.2930 N   0  0  0  0  0  0  0  0  0  0  0  0
  -42.2730  -12.3160  -22.4620 O   0  0  0  0  0  0  0  0  0  0  0  0
  -40.0330  -11.3370  -22.1120 O   0  0  0  0  0  0  0  0  0  0  0  0
  -40.9660  -12.4040  -21.8750 S   0  0  2  0  0  0  0  0  0  0  0  0
  3  1  1  0
  4  3  3  0
  5  4  1  0
  7  2  1  0
  8  7  1  0
  9  8  1  0
 10  2  1  0
  7 11  1  1
 11  6  1  0
 11  5  1  0
 14 13  2  0
 14 12  2  0
 14  9  1  6
 14 10  1  0
M  END
>  <id>  (55) 
55

>  <inchikey>  (55) 
PFUSCIQPWKGDKP-UHFFFAOYSA-N

>  <alias>  (55) 
m0594b

>  <smiles>  (55) 
CC#CCN(C)C1CCS(=O)(=O)CC1

>  <path>  (55) 
/opt/xchem-fragalysis-2/maxwin/BulkDock/TARGETS/TRIM21/aligned_files/m0594b/m0594b.pdb

>  <distance_score>  (55) 
None

>  <energy_score>  (55) 
None

>  <compound>  (55) 
PFUSCIQPWKGDKP-UHFFFAOYSA-N

>  <compound_id>  (55) 
50

>  <target>  (55) 
TRIM21

>  <tags>  (55) 
['Main status', 'GOOD count', 'hits', 'BAD count', '[Other] upload_1 2025-03-17', 'MEDIOCRE count', 'iter1_hits']

>  <inspirations>  (55) 
None

>  <subsites>  (55) 
None

>  <reference>  (55) 


>  <observation_longname>  (55) 
TRIM21-x0594_B_401_v1

>  <ConformerSites alias>  (55) 
2a - m0043/B/302

>  <CanonSites alias>  (55) 
2 - m0043/B/302/1

>  <CrystalformSites alias>  (55) 
F1d - m0043/B/302

>  <Quatassemblies alias>  (55) 
A1 - monomer

>  <Crystalforms alias>  (55) 
F1 - xtalform1

>  <ConformerSites upload name>  (55) 
2a - TRIM21-x0043/B/302

>  <CanonSites upload name>  (55) 
2 - TRIM21-x0043/B/302/1

>  <CrystalformSites upload name>  (55) 
F1d - TRIM21-x0043/B/302/1

>  <Quatassemblies upload name>  (55) 
A1 - monomer

>  <Crystalforms upload name>  (55) 
F1 - xtalform1

>  <ConformerSites short tag>  (55) 
2a - m0043/B/302

>  <CanonSites short tag>  (55) 
2 - m0043/B/302/1

>  <CrystalformSites short tag>  (55) 
F1d - m0043/B/302

>  <Quatassemblies short tag>  (55) 
A1 - monomer

>  <Crystalforms short tag>  (55) 
F1 - xtalform1

>  <Centroid res>  (55) 
TRIM21-x0043/B/109/B_v1

>  <Experiment code>  (55) 
TRIM21-x0594

>  <Pose>  (55) 
m0594b

>  <exports>  (55) 
/opt/xchem-fragalysis-2/maxwin/TRIM21_FFF/knitwork/iter1/iter1_hits.sdf

$$$$
m0597a
     RDKit          3D

 15 16  0  0  0  0  0  0  0  0999 V2000
  -46.1750  -10.1920  -29.1540 C   0  0  0  0  0  0  0  0  0  0  0  0
  -43.7410   -7.4190  -29.5600 C   0  0  1  0  0  0  0  0  0  0  0  0
  -42.8000   -7.6260  -28.3720 C   0  0  0  0  0  0  0  0  0  0  0  0
  -45.1290   -8.0340  -29.3320 C   0  0  2  0  0  0  0  0  0  0  0  0
  -45.9350   -7.2370  -28.3190 C   0  0  0  0  0  0  0  0  0  0  0  0
  -47.1260   -5.1060  -28.1020 C   0  0  0  0  0  0  0  0  0  0  0  0
  -46.8390   -4.8370  -26.6590 C   0  0  0  0  0  0  0  0  0  0  0  0
  -46.1430   -3.8310  -26.1060 C   0  0  0  0  0  0  0  0  0  0  0  0
  -46.9610   -4.6420  -24.2650 C   0  0  0  0  0  0  0  0  0  0  0  0
  -44.8020   -5.2260  -28.9020 C   0  0  0  0  0  0  0  0  0  0  0  0
  -43.8890   -5.9380  -29.8860 C   0  0  0  0  0  0  0  0  0  0  0  0
  -46.1110   -5.8810  -28.8390 N   0  0  0  0  0  0  0  0  0  0  0  0
  -46.4000   -3.5750  -24.7720 N   0  0  0  0  0  0  0  0  0  0  0  0
  -45.0770   -9.3500  -28.7920 O   0  0  0  0  0  0  0  0  0  0  0  0
  -47.4730   -5.8220  -25.3940 S   0  0  0  0  0  0  0  0  0  0  0  0
  2  3  1  1
  4  2  1  0
  5  4  1  0
  7  6  1  0
  8  7  2  0
 11  2  1  0
 11 10  1  0
 12  5  1  0
 12 10  1  0
 12  6  1  0
 13  9  2  0
 13  8  1  0
  4 14  1  1
 14  1  1  0
 15  9  1  0
 15  7  1  0
M  END
>  <id>  (56) 
56

>  <inchikey>  (56) 
UXYBJSJEXNRBGO-KOLCDFICSA-N

>  <alias>  (56) 
m0597a

>  <smiles>  (56) 
CO[C@H]1CN(Cc2cncs2)CC[C@H]1C

>  <path>  (56) 
/opt/xchem-fragalysis-2/maxwin/BulkDock/TARGETS/TRIM21/aligned_files/m0597a/m0597a.pdb

>  <distance_score>  (56) 
None

>  <energy_score>  (56) 
None

>  <compound>  (56) 
UXYBJSJEXNRBGO-UHFFFAOYSA-N

>  <compound_id>  (56) 
51

>  <target>  (56) 
TRIM21

>  <tags>  (56) 
['Main status', 'GOOD count', 'hits', 'BAD count', '[Other] upload_1 2025-03-17', 'MEDIOCRE count', 'iter1_hits']

>  <inspirations>  (56) 
None

>  <subsites>  (56) 
None

>  <reference>  (56) 


>  <observation_longname>  (56) 
TRIM21-x0597_B_302_v1

>  <ConformerSites alias>  (56) 
1a - m0031/B/401

>  <CanonSites alias>  (56) 
1 - m0031/B/401/1

>  <CrystalformSites alias>  (56) 
F1c - m0611/B/301

>  <Quatassemblies alias>  (56) 
A1 - monomer

>  <Crystalforms alias>  (56) 
F1 - xtalform1

>  <ConformerSites upload name>  (56) 
1a - TRIM21-x0031/B/401

>  <CanonSites upload name>  (56) 
1 - TRIM21-x0031/B/401/1

>  <CrystalformSites upload name>  (56) 
F1c - TRIM21-x0611/B/301/1

>  <Quatassemblies upload name>  (56) 
A1 - monomer

>  <Crystalforms upload name>  (56) 
F1 - xtalform1

>  <ConformerSites short tag>  (56) 
1a - m0031/B/401

>  <CanonSites short tag>  (56) 
1 - m0031/B/401/1

>  <CrystalformSites short tag>  (56) 
F1c - m0611/B/301

>  <Quatassemblies short tag>  (56) 
A1 - monomer

>  <Crystalforms short tag>  (56) 
F1 - xtalform1

>  <Centroid res>  (56) 
TRIM21-x0031/B/39/B_v1

>  <Experiment code>  (56) 
TRIM21-x0597

>  <Pose>  (56) 
m0597a

>  <exports>  (56) 
/opt/xchem-fragalysis-2/maxwin/TRIM21_FFF/knitwork/iter1/iter1_hits.sdf

$$$$
m0604a
     RDKit          3D

 13 13  0  0  0  0  0  0  0  0999 V2000
  -45.0820   -1.2240  -23.3150 C   0  0  0  0  0  0  0  0  0  0  0  0
  -43.6720   -5.2470  -26.3050 C   0  0  0  0  0  0  0  0  0  0  0  0
  -46.1090   -3.3810  -23.1010 C   0  0  0  0  0  0  0  0  0  0  0  0
  -45.3770   -4.6710  -23.4120 C   0  0  0  0  0  0  0  0  0  0  0  0
  -45.2540   -6.6230  -24.8980 C   0  0  0  0  0  0  0  0  0  0  0  0
  -44.1960   -6.4860  -25.9670 C   0  0  0  0  0  0  0  0  0  0  0  0
  -43.7220   -7.6110  -26.6260 C   0  0  0  0  0  0  0  0  0  0  0  0
  -42.7560   -7.4970  -27.6140 C   0  0  0  0  0  0  0  0  0  0  0  0
  -42.2480   -6.2620  -27.9420 C   0  0  0  0  0  0  0  0  0  0  0  0
  -42.7090   -5.1390  -27.2980 C   0  0  0  0  0  0  0  0  0  0  0  0
  -45.8210   -5.3520  -24.4630 N   0  0  0  0  0  0  0  0  0  0  0  0
  -45.2210   -2.4300  -22.5730 O   0  0  0  0  0  0  0  0  0  0  0  0
  -44.4240   -5.0140  -22.7130 O   0  0  0  0  0  0  0  0  0  0  0  0
  4  3  1  0
  6  5  1  0
  6  2  2  0
  7  6  1  0
  8  7  2  0
  9  8  1  0
 10  2  1  0
 10  9  2  0
 11  5  1  0
 11  4  1  0
 12  3  1  0
 12  1  1  0
 13  4  2  0
M  END
>  <id>  (57) 
57

>  <inchikey>  (57) 
VLAPGEODGZEQPC-UHFFFAOYSA-N

>  <alias>  (57) 
m0604a

>  <smiles>  (57) 
COCC(=O)NCc1ccccc1

>  <path>  (57) 
/opt/xchem-fragalysis-2/maxwin/BulkDock/TARGETS/TRIM21/aligned_files/m0604a/m0604a.pdb

>  <distance_score>  (57) 
None

>  <energy_score>  (57) 
None

>  <compound>  (57) 
VLAPGEODGZEQPC-UHFFFAOYSA-N

>  <compound_id>  (57) 
52

>  <target>  (57) 
TRIM21

>  <tags>  (57) 
['Main status', 'GOOD count', 'hits', 'BAD count', '[Other] upload_1 2025-03-17', 'MEDIOCRE count', 'iter1_hits']

>  <inspirations>  (57) 
None

>  <subsites>  (57) 
None

>  <reference>  (57) 


>  <observation_longname>  (57) 
TRIM21-x0604_B_302_v1

>  <ConformerSites alias>  (57) 
1a - m0031/B/401

>  <CanonSites alias>  (57) 
1 - m0031/B/401/1

>  <CrystalformSites alias>  (57) 
F1c - m0611/B/301

>  <Quatassemblies alias>  (57) 
A1 - monomer

>  <Crystalforms alias>  (57) 
F1 - xtalform1

>  <ConformerSites upload name>  (57) 
1a - TRIM21-x0031/B/401

>  <CanonSites upload name>  (57) 
1 - TRIM21-x0031/B/401/1

>  <CrystalformSites upload name>  (57) 
F1c - TRIM21-x0611/B/301/1

>  <Quatassemblies upload name>  (57) 
A1 - monomer

>  <Crystalforms upload name>  (57) 
F1 - xtalform1

>  <ConformerSites short tag>  (57) 
1a - m0031/B/401

>  <CanonSites short tag>  (57) 
1 - m0031/B/401/1

>  <CrystalformSites short tag>  (57) 
F1c - m0611/B/301

>  <Quatassemblies short tag>  (57) 
A1 - monomer

>  <Crystalforms short tag>  (57) 
F1 - xtalform1

>  <Centroid res>  (57) 
TRIM21-x0031/B/39/B_v1

>  <Experiment code>  (57) 
TRIM21-x0604

>  <Pose>  (57) 
m0604a

>  <exports>  (57) 
/opt/xchem-fragalysis-2/maxwin/TRIM21_FFF/knitwork/iter1/iter1_hits.sdf

$$$$
m0606a
     RDKit          3D

 14 15  0  0  0  0  0  0  0  0999 V2000
  -46.0760    0.4890  -25.6120 C   0  0  0  0  0  0  0  0  0  0  0  0
  -46.0300   -3.4240  -22.3600 C   0  0  0  0  0  0  0  0  0  0  0  0
  -44.5460   -1.9210  -23.2520 C   0  0  0  0  0  0  0  0  0  0  0  0
  -45.3080    0.2230  -24.3460 C   0  0  1  0  0  0  0  0  0  0  0  0
  -43.2940    1.1270  -23.3140 C   0  0  0  0  0  0  0  0  0  0  0  0
  -41.9260    1.6360  -23.5300 C   0  0  2  0  0  0  0  0  0  0  0  0
  -40.9530    1.5080  -22.3890 C   0  0  0  0  0  0  0  0  0  0  0  0
  -41.4830    2.8370  -22.7350 C   0  0  0  0  0  0  0  0  0  0  0  0
  -45.5670   -1.0710  -23.6310 C   0  0  0  0  0  0  0  0  0  0  0  0
  -46.8660   -1.4620  -23.3270 C   0  0  0  0  0  0  0  0  0  0  0  0
  -47.1030   -2.6390  -22.6880 C   0  0  0  0  0  0  0  0  0  0  0  0
  -43.9340    0.6900  -24.4010 N   0  0  0  0  0  0  0  0  0  0  0  0
  -44.7620   -3.1000  -22.6390 N   0  0  0  0  0  0  0  0  0  0  0  0
  -43.8260    1.1430  -22.2080 O   0  0  0  0  0  0  0  0  0  0  0  0
  4  1  1  6
  6  5  1  1
  7  6  1  0
  8  7  1  0
  8  6  1  0
  9  4  1  0
  9  3  1  0
 10  9  2  0
 11 10  1  0
 11  2  2  0
 12  4  1  0
 12  5  1  0
 13  3  2  0
 13  2  1  0
 14  5  2  0
M  END
>  <id>  (58) 
58

>  <inchikey>  (58) 
XMSIZXIEDPYJDR-QMMMGPOBSA-N

>  <alias>  (58) 
m0606a

>  <smiles>  (58) 
C[C@H](NC(=O)C1CC1)c1cccnc1

>  <path>  (58) 
/opt/xchem-fragalysis-2/maxwin/BulkDock/TARGETS/TRIM21/aligned_files/m0606a/m0606a.pdb

>  <distance_score>  (58) 
None

>  <energy_score>  (58) 
None

>  <compound>  (58) 
XMSIZXIEDPYJDR-UHFFFAOYSA-N

>  <compound_id>  (58) 
53

>  <target>  (58) 
TRIM21

>  <tags>  (58) 
['Main status', 'GOOD count', 'hits', 'BAD count', '[Other] upload_1 2025-03-17', 'MEDIOCRE count', 'iter1_hits']

>  <inspirations>  (58) 
None

>  <subsites>  (58) 
None

>  <reference>  (58) 


>  <observation_longname>  (58) 
TRIM21-x0606_B_302_v1

>  <ConformerSites alias>  (58) 
1a - m0031/B/401

>  <CanonSites alias>  (58) 
1 - m0031/B/401/1

>  <CrystalformSites alias>  (58) 
F1c - m0611/B/301

>  <Quatassemblies alias>  (58) 
A1 - monomer

>  <Crystalforms alias>  (58) 
F1 - xtalform1

>  <ConformerSites upload name>  (58) 
1a - TRIM21-x0031/B/401

>  <CanonSites upload name>  (58) 
1 - TRIM21-x0031/B/401/1

>  <CrystalformSites upload name>  (58) 
F1c - TRIM21-x0611/B/301/1

>  <Quatassemblies upload name>  (58) 
A1 - monomer

>  <Crystalforms upload name>  (58) 
F1 - xtalform1

>  <ConformerSites short tag>  (58) 
1a - m0031/B/401

>  <CanonSites short tag>  (58) 
1 - m0031/B/401/1

>  <CrystalformSites short tag>  (58) 
F1c - m0611/B/301

>  <Quatassemblies short tag>  (58) 
A1 - monomer

>  <Crystalforms short tag>  (58) 
F1 - xtalform1

>  <Centroid res>  (58) 
TRIM21-x0031/B/39/B_v1

>  <Experiment code>  (58) 
TRIM21-x0606

>  <Pose>  (58) 
m0606a

>  <exports>  (58) 
/opt/xchem-fragalysis-2/maxwin/TRIM21_FFF/knitwork/iter1/iter1_hits.sdf

$$$$
m0609a
     RDKit          3D

 13 13  0  0  0  0  0  0  0  0999 V2000
  -49.0740    2.3440  -22.5950 C   0  0  0  0  0  0  0  0  0  0  0  0
  -49.8150    7.4600  -27.5490 C   0  0  0  0  0  0  0  0  0  0  0  0
  -48.6150    8.0850  -26.8520 C   0  0  0  0  0  0  0  0  0  0  0  0
  -49.8840    3.3860  -23.2960 C   0  0  0  0  0  0  0  0  0  0  0  0
  -49.8980    4.9480  -25.2250 C   0  0  0  0  0  0  0  0  0  0  0  0
  -49.3190    5.1020  -26.6370 C   0  0  0  0  0  0  0  0  0  0  0  0
  -50.1230    6.0830  -27.4730 C   0  0  0  0  0  0  0  0  0  0  0  0
  -51.2390    5.6180  -28.1630 C   0  0  0  0  0  0  0  0  0  0  0  0
  -52.0510    6.4660  -28.8860 C   0  0  0  0  0  0  0  0  0  0  0  0
  -51.7480    7.8060  -28.9550 C   0  0  0  0  0  0  0  0  0  0  0  0
  -50.6340    8.2900  -28.2980 C   0  0  0  0  0  0  0  0  0  0  0  0
  -49.4420    3.7540  -24.5150 N   0  0  0  0  0  0  0  0  0  0  0  0
  -50.9070    3.8440  -22.7780 O   0  0  0  0  0  0  0  0  0  0  0  0
  3  2  1  0
  4  1  1  0
  6  5  1  0
  7  6  1  0
  7  2  2  0
  8  7  1  0
  9  8  2  0
 10  9  1  0
 11 10  2  0
 11  2  1  0
 12  5  1  0
 12  4  1  0
 13  4  2  0
M  END
>  <id>  (59) 
59

>  <inchikey>  (59) 
OAMCTZZCYXDSLI-UHFFFAOYSA-N

>  <alias>  (59) 
m0609a

>  <smiles>  (59) 
CC(=O)NCCc1ccccc1C

>  <path>  (59) 
/opt/xchem-fragalysis-2/maxwin/BulkDock/TARGETS/TRIM21/aligned_files/m0609a/m0609a.pdb

>  <distance_score>  (59) 
None

>  <energy_score>  (59) 
None

>  <compound>  (59) 
OAMCTZZCYXDSLI-UHFFFAOYSA-N

>  <compound_id>  (59) 
54

>  <target>  (59) 
TRIM21

>  <tags>  (59) 
['Main status', 'GOOD count', 'hits', 'BAD count', '[Other] upload_1 2025-03-17', 'MEDIOCRE count', 'iter1_hits']

>  <inspirations>  (59) 
None

>  <subsites>  (59) 
None

>  <reference>  (59) 


>  <observation_longname>  (59) 
TRIM21-x0609_B_302_v1

>  <ConformerSites alias>  (59) 
4b - m0609/B/302

>  <CanonSites alias>  (59) 
4 - m0046/B/302/1

>  <CrystalformSites alias>  (59) 
F1g - m0609/B/302

>  <Quatassemblies alias>  (59) 
A1 - monomer

>  <Crystalforms alias>  (59) 
F1 - xtalform1

>  <ConformerSites upload name>  (59) 
4b - TRIM21-x0609/B/302

>  <CanonSites upload name>  (59) 
4 - TRIM21-x0046/B/302/1

>  <CrystalformSites upload name>  (59) 
F1g - TRIM21-x0609/B/302/1

>  <Quatassemblies upload name>  (59) 
A1 - monomer

>  <Crystalforms upload name>  (59) 
F1 - xtalform1

>  <ConformerSites short tag>  (59) 
4b - m0609/B/302

>  <CanonSites short tag>  (59) 
4 - m0046/B/302/1

>  <CrystalformSites short tag>  (59) 
F1g - m0609/B/302

>  <Quatassemblies short tag>  (59) 
A1 - monomer

>  <Crystalforms short tag>  (59) 
F1 - xtalform1

>  <Centroid res>  (59) 
TRIM21-x0046/B/42/B_v1

>  <Experiment code>  (59) 
TRIM21-x0609

>  <Pose>  (59) 
m0609a

>  <exports>  (59) 
/opt/xchem-fragalysis-2/maxwin/TRIM21_FFF/knitwork/iter1/iter1_hits.sdf

$$$$
m0611a
     RDKit          3D

 14 15  0  0  0  0  0  0  0  0999 V2000
  -41.6180    1.7390  -22.6170 C   0  0  0  0  0  0  0  0  0  0  0  0
  -43.9850    1.3100  -23.0330 C   0  0  1  0  0  0  0  0  0  0  0  0
  -43.9170   -0.0600  -23.7270 C   0  0  0  0  0  0  0  0  0  0  0  0
  -45.2250    0.8230  -22.2770 C   0  0  0  0  0  0  0  0  0  0  0  0
  -47.4470   -1.9820  -24.8990 C   0  0  0  0  0  0  0  0  0  0  0  0
  -47.6860   -3.0360  -25.9090 C   0  0  0  0  0  0  0  0  0  0  0  0
  -46.3740   -3.7650  -26.0560 C   0  0  0  0  0  0  0  0  0  0  0  0
  -45.6620   -3.6110  -24.7500 C   0  0  0  0  0  0  0  0  0  0  0  0
  -45.2860   -0.3280  -23.2100 N   0  0  0  0  0  0  0  0  0  0  0  0
  -46.4660   -2.6220  -24.0080 N   0  0  0  0  0  0  0  0  0  0  0  0
  -42.9550    1.6690  -22.1510 O   0  0  0  0  0  0  0  0  0  0  0  0
  -46.8510   -1.5960  -21.8320 O   0  0  0  0  0  0  0  0  0  0  0  0
  -44.6500   -2.5420  -22.4070 O   0  0  0  0  0  0  0  0  0  0  0  0
  -45.8120   -1.8020  -22.7730 S   0  0  2  0  0  0  0  0  0  0  0  0
  3  2  1  0
  4  2  1  0
  6  5  1  0
  7  6  1  0
  8  7  1  0
  9  4  1  0
  9  3  1  0
 10  8  1  0
 10  5  1  0
  2 11  1  1
 11  1  1  0
 14 13  2  0
 14 12  2  0
 14 10  1  6
 14  9  1  0
M  END
>  <id>  (60) 
60

>  <inchikey>  (60) 
KONUKKZPOYOKNK-UHFFFAOYSA-N

>  <alias>  (60) 
m0611a

>  <smiles>  (60) 
COC1CN(S(=O)(=O)N2CCCC2)C1

>  <path>  (60) 
/opt/xchem-fragalysis-2/maxwin/BulkDock/TARGETS/TRIM21/aligned_files/m0611a/m0611a.pdb

>  <distance_score>  (60) 
None

>  <energy_score>  (60) 
None

>  <compound>  (60) 
KONUKKZPOYOKNK-UHFFFAOYSA-N

>  <compound_id>  (60) 
55

>  <target>  (60) 
TRIM21

>  <tags>  (60) 
['Main status', 'GOOD count', 'hits', 'BAD count', '[Other] upload_1 2025-03-17', 'MEDIOCRE count', 'iter1_hits']

>  <inspirations>  (60) 
None

>  <subsites>  (60) 
None

>  <reference>  (60) 


>  <observation_longname>  (60) 
TRIM21-x0611_B_301_v1

>  <ConformerSites alias>  (60) 
1a - m0031/B/401

>  <CanonSites alias>  (60) 
1 - m0031/B/401/1

>  <CrystalformSites alias>  (60) 
F1c - m0611/B/301

>  <Quatassemblies alias>  (60) 
A1 - monomer

>  <Crystalforms alias>  (60) 
F1 - xtalform1

>  <ConformerSites upload name>  (60) 
1a - TRIM21-x0031/B/401

>  <CanonSites upload name>  (60) 
1 - TRIM21-x0031/B/401/1

>  <CrystalformSites upload name>  (60) 
F1c - TRIM21-x0611/B/301/1

>  <Quatassemblies upload name>  (60) 
A1 - monomer

>  <Crystalforms upload name>  (60) 
F1 - xtalform1

>  <ConformerSites short tag>  (60) 
1a - m0031/B/401

>  <CanonSites short tag>  (60) 
1 - m0031/B/401/1

>  <CrystalformSites short tag>  (60) 
F1c - m0611/B/301

>  <Quatassemblies short tag>  (60) 
A1 - monomer

>  <Crystalforms short tag>  (60) 
F1 - xtalform1

>  <Centroid res>  (60) 
TRIM21-x0031/B/39/B_v1

>  <Experiment code>  (60) 
TRIM21-x0611

>  <Pose>  (60) 
m0611a

>  <exports>  (60) 
/opt/xchem-fragalysis-2/maxwin/TRIM21_FFF/knitwork/iter1/iter1_hits.sdf

$$$$
m0615a
     RDKit          3D

 15 16  0  0  0  0  0  0  0  0999 V2000
  -42.8970   -6.7340  -28.5360 C   0  0  0  0  0  0  0  0  0  0  0  0
  -45.6840   -4.0590  -26.5650 C   0  0  0  0  0  0  0  0  0  0  0  0
  -43.1890   -7.8320  -29.2110 C   0  0  0  0  0  0  0  0  0  0  0  0
  -44.4500   -7.9790  -29.9930 C   0  0  0  0  0  0  0  0  0  0  0  0
  -45.1500   -6.6370  -30.0930 C   0  0  0  0  0  0  0  0  0  0  0  0
  -43.8170   -5.5600  -28.3950 C   0  0  0  0  0  0  0  0  0  0  0  0
  -46.2060   -6.1030  -27.9600 C   0  0  0  0  0  0  0  0  0  0  0  0
  -46.8000   -6.0050  -25.5630 C   0  0  0  0  0  0  0  0  0  0  0  0
  -47.8360   -5.0480  -25.0480 C   0  0  0  0  0  0  0  0  0  0  0  0
  -46.7520   -3.2010  -25.9470 C   0  0  0  0  0  0  0  0  0  0  0  0
  -41.7400   -6.5750  -27.9010 F   0  0  0  0  0  0  0  0  0  0  0  0
  -45.1490   -6.0200  -28.7650 N   0  0  0  0  0  0  0  0  0  0  0  0
  -46.1850   -5.4250  -26.7610 N   0  0  0  0  0  0  0  0  0  0  0  0
  -47.1220   -6.8670  -28.2240 O   0  0  0  0  0  0  0  0  0  0  0  0
  -47.2590   -3.7840  -24.7530 O   0  0  0  0  0  0  0  0  0  0  0  0
  3  1  2  0
  4  3  1  0
  5  4  1  0
  6  1  1  0
  9  8  1  0
 10  2  1  0
 11  1  1  0
 12  7  1  0
 12  6  1  0
 12  5  1  0
 13  7  1  0
 13  8  1  0
 13  2  1  0
 14  7  2  0
 15 10  1  0
 15  9  1  0
M  END
>  <id>  (61) 
61

>  <inchikey>  (61) 
LDGCQIOEOKUKQW-UHFFFAOYSA-N

>  <alias>  (61) 
m0615a

>  <smiles>  (61) 
O=C(N1CCOCC1)N1CCC=C(F)C1

>  <path>  (61) 
/opt/xchem-fragalysis-2/maxwin/BulkDock/TARGETS/TRIM21/aligned_files/m0615a/m0615a.pdb

>  <distance_score>  (61) 
None

>  <energy_score>  (61) 
None

>  <compound>  (61) 
LDGCQIOEOKUKQW-UHFFFAOYSA-N

>  <compound_id>  (61) 
56

>  <target>  (61) 
TRIM21

>  <tags>  (61) 
['Main status', 'GOOD count', 'hits', 'BAD count', '[Other] upload_1 2025-03-17', 'MEDIOCRE count', 'iter1_hits']

>  <inspirations>  (61) 
None

>  <subsites>  (61) 
None

>  <reference>  (61) 


>  <observation_longname>  (61) 
TRIM21-x0615_B_201_v1

>  <ConformerSites alias>  (61) 
1a - m0031/B/401

>  <CanonSites alias>  (61) 
1 - m0031/B/401/1

>  <CrystalformSites alias>  (61) 
F1c - m0611/B/301

>  <Quatassemblies alias>  (61) 
A1 - monomer

>  <Crystalforms alias>  (61) 
F1 - xtalform1

>  <ConformerSites upload name>  (61) 
1a - TRIM21-x0031/B/401

>  <CanonSites upload name>  (61) 
1 - TRIM21-x0031/B/401/1

>  <CrystalformSites upload name>  (61) 
F1c - TRIM21-x0611/B/301/1

>  <Quatassemblies upload name>  (61) 
A1 - monomer

>  <Crystalforms upload name>  (61) 
F1 - xtalform1

>  <ConformerSites short tag>  (61) 
1a - m0031/B/401

>  <CanonSites short tag>  (61) 
1 - m0031/B/401/1

>  <CrystalformSites short tag>  (61) 
F1c - m0611/B/301

>  <Quatassemblies short tag>  (61) 
A1 - monomer

>  <Crystalforms short tag>  (61) 
F1 - xtalform1

>  <Centroid res>  (61) 
TRIM21-x0031/B/39/B_v1

>  <Experiment code>  (61) 
TRIM21-x0615

>  <Pose>  (61) 
m0615a

>  <exports>  (61) 
/opt/xchem-fragalysis-2/maxwin/TRIM21_FFF/knitwork/iter1/iter1_hits.sdf

$$$$
m0631a
     RDKit          3D

 14 15  0  0  0  0  0  0  0  0999 V2000
  -44.9350   -2.5150  -24.8120 C   0  0  0  0  0  0  0  0  0  0  0  0
  -44.7450   -3.5100  -25.9260 C   0  0  0  0  0  0  0  0  0  0  0  0
  -45.9210   -5.0130  -27.4120 C   0  0  0  0  0  0  0  0  0  0  0  0
  -44.6860   -5.7710  -27.7520 C   0  0  0  0  0  0  0  0  0  0  0  0
  -43.5250   -5.4260  -28.3380 C   0  0  0  0  0  0  0  0  0  0  0  0
  -42.6980   -6.5870  -28.3690 C   0  0  0  0  0  0  0  0  0  0  0  0
  -43.4270   -7.5850  -27.7880 C   0  0  0  0  0  0  0  0  0  0  0  0
  -46.0610   -5.2720  -24.9720 C   0  0  0  0  0  0  0  0  0  0  0  0
  -46.4380   -4.5270  -23.6970 C   0  0  0  0  0  0  0  0  0  0  0  0
  -45.9370   -4.3390  -26.1040 N   0  0  0  0  0  0  0  0  0  0  0  0
  -43.9800   -4.1370  -22.9510 O   0  0  0  0  0  0  0  0  0  0  0  0
  -45.6160   -2.4470  -22.2800 O   0  0  0  0  0  0  0  0  0  0  0  0
  -44.6580   -7.0930  -27.4180 O   0  0  0  0  0  0  0  0  0  0  0  0
  -45.1630   -3.3760  -23.2750 S   0  0  1  0  0  0  0  0  0  0  0  0
  2  1  1  0
  4  3  1  0
  5  4  2  0
  6  5  1  0
  7  6  2  0
  9  8  1  0
 10  3  1  0
 10  8  1  0
 10  2  1  0
 13  4  1  0
 13  7  1  0
 14 12  2  0
 14 11  2  0
 14  9  1  6
 14  1  1  0
M  END
>  <id>  (62) 
62

>  <inchikey>  (62) 
AEOGPIJVSQTAII-UHFFFAOYSA-N

>  <alias>  (62) 
m0631a

>  <smiles>  (62) 
O=S1(=O)CCN(Cc2ccco2)CC1

>  <path>  (62) 
/opt/xchem-fragalysis-2/maxwin/BulkDock/TARGETS/TRIM21/aligned_files/m0631a/m0631a.pdb

>  <distance_score>  (62) 
None

>  <energy_score>  (62) 
None

>  <compound>  (62) 
AEOGPIJVSQTAII-UHFFFAOYSA-N

>  <compound_id>  (62) 
57

>  <target>  (62) 
TRIM21

>  <tags>  (62) 
['Main status', 'GOOD count', 'hits', 'BAD count', '[Other] upload_1 2025-03-17', 'MEDIOCRE count', 'iter1_hits']

>  <inspirations>  (62) 
None

>  <subsites>  (62) 
None

>  <reference>  (62) 


>  <observation_longname>  (62) 
TRIM21-x0631_B_201_v1

>  <ConformerSites alias>  (62) 
1a - m0031/B/401

>  <CanonSites alias>  (62) 
1 - m0031/B/401/1

>  <CrystalformSites alias>  (62) 
F1c - m0611/B/301

>  <Quatassemblies alias>  (62) 
A1 - monomer

>  <Crystalforms alias>  (62) 
F1 - xtalform1

>  <ConformerSites upload name>  (62) 
1a - TRIM21-x0031/B/401

>  <CanonSites upload name>  (62) 
1 - TRIM21-x0031/B/401/1

>  <CrystalformSites upload name>  (62) 
F1c - TRIM21-x0611/B/301/1

>  <Quatassemblies upload name>  (62) 
A1 - monomer

>  <Crystalforms upload name>  (62) 
F1 - xtalform1

>  <ConformerSites short tag>  (62) 
1a - m0031/B/401

>  <CanonSites short tag>  (62) 
1 - m0031/B/401/1

>  <CrystalformSites short tag>  (62) 
F1c - m0611/B/301

>  <Quatassemblies short tag>  (62) 
A1 - monomer

>  <Crystalforms short tag>  (62) 
F1 - xtalform1

>  <Centroid res>  (62) 
TRIM21-x0031/B/39/B_v1

>  <Experiment code>  (62) 
TRIM21-x0631

>  <Pose>  (62) 
m0631a

>  <exports>  (62) 
/opt/xchem-fragalysis-2/maxwin/TRIM21_FFF/knitwork/iter1/iter1_hits.sdf

$$$$
m0638a
     RDKit          3D

 14 15  0  0  0  0  0  0  0  0999 V2000
  -29.5470  -28.0310  -28.4090 C   0  0  0  0  0  0  0  0  0  0  0  0
  -28.8240  -29.7400  -24.5620 C   0  0  0  0  0  0  0  0  0  0  0  0
  -28.3710  -28.8310  -27.9340 C   0  0  0  0  0  0  0  0  0  0  0  0
  -27.4260  -28.4080  -25.6110 C   0  0  0  0  0  0  0  0  0  0  0  0
  -27.7370  -28.8860  -24.3730 C   0  0  0  0  0  0  0  0  0  0  0  0
  -26.2290  -27.6560  -22.8160 C   0  0  0  0  0  0  0  0  0  0  0  0
  -25.7420  -27.6650  -21.3910 C   0  0  2  0  0  0  0  0  0  0  0  0
  -26.7340  -28.0570  -20.2750 C   0  0  0  0  0  0  0  0  0  0  0  0
  -26.2000  -26.8660  -19.4700 C   0  0  0  0  0  0  0  0  0  0  0  0
  -25.6490  -26.2640  -20.7630 C   0  0  0  0  0  0  0  0  0  0  0  0
  -28.3030  -28.9660  -26.4810 N   0  0  0  0  0  0  0  0  0  0  0  0
  -27.1390  -28.6230  -23.1250 N   0  0  0  0  0  0  0  0  0  0  0  0
  -29.1530  -29.8020  -25.8420 N   0  0  0  0  0  0  0  0  0  0  0  0
  -25.8180  -26.7940  -23.6320 O   0  0  0  0  0  0  0  0  0  0  0  0
  3  1  1  0
  5  4  2  0
  5  2  1  0
  7  6  1  6
  8  7  1  0
  9  8  1  0
 10  7  1  0
 10  9  1  0
 11  3  1  0
 11  4  1  0
 12  5  1  0
 12  6  1  0
 13 11  1  0
 13  2  2  0
 14  6  2  0
M  END
>  <id>  (63) 
63

>  <inchikey>  (63) 
UVTFDTBDFQZRHD-UHFFFAOYSA-N

>  <alias>  (63) 
m0638a

>  <smiles>  (63) 
CCn1cc(NC(=O)C2CCC2)cn1

>  <path>  (63) 
/opt/xchem-fragalysis-2/maxwin/BulkDock/TARGETS/TRIM21/aligned_files/m0638a/m0638a.pdb

>  <distance_score>  (63) 
None

>  <energy_score>  (63) 
None

>  <compound>  (63) 
UVTFDTBDFQZRHD-UHFFFAOYSA-N

>  <compound_id>  (63) 
58

>  <target>  (63) 
TRIM21

>  <tags>  (63) 
['Main status', 'GOOD count', 'hits', 'BAD count', '[Other] upload_1 2025-03-17', 'MEDIOCRE count', 'iter1_hits']

>  <inspirations>  (63) 
None

>  <subsites>  (63) 
None

>  <reference>  (63) 


>  <observation_longname>  (63) 
TRIM21-x0638_B_302_v1

>  <ConformerSites alias>  (63) 
3a - m0176/B/302

>  <CanonSites alias>  (63) 
3 - m0176/B/302/1

>  <CrystalformSites alias>  (63) 
F1e - m0176/B/302

>  <Quatassemblies alias>  (63) 
A1 - monomer

>  <Crystalforms alias>  (63) 
F1 - xtalform1

>  <ConformerSites upload name>  (63) 
3a - TRIM21-x0176/B/302

>  <CanonSites upload name>  (63) 
3 - TRIM21-x0176/B/302/1

>  <CrystalformSites upload name>  (63) 
F1e - TRIM21-x0176/B/302/1

>  <Quatassemblies upload name>  (63) 
A1 - monomer

>  <Crystalforms upload name>  (63) 
F1 - xtalform1

>  <ConformerSites short tag>  (63) 
3a - m0176/B/302

>  <CanonSites short tag>  (63) 
3 - m0176/B/302/1

>  <CrystalformSites short tag>  (63) 
F1e - m0176/B/302

>  <Quatassemblies short tag>  (63) 
A1 - monomer

>  <Crystalforms short tag>  (63) 
F1 - xtalform1

>  <Centroid res>  (63) 
TRIM21-x0176/B/101/B_v1

>  <Experiment code>  (63) 
TRIM21-x0638

>  <Pose>  (63) 
m0638a

>  <exports>  (63) 
/opt/xchem-fragalysis-2/maxwin/TRIM21_FFF/knitwork/iter1/iter1_hits.sdf

$$$$
m0641a
     RDKit          3D

 15 16  0  0  0  0  0  0  0  0999 V2000
  -43.3500   -8.0160  -28.8750 C   0  0  0  0  0  0  0  0  0  0  0  0
  -45.2320   -3.5380  -23.3050 C   0  0  0  0  0  0  0  0  0  0  0  0
  -44.4960   -7.0440  -28.6570 C   0  0  0  0  0  0  0  0  0  0  0  0
  -44.1310   -5.9900  -27.6850 C   0  0  0  0  0  0  0  0  0  0  0  0
  -44.0090   -4.3390  -26.3330 C   0  0  0  0  0  0  0  0  0  0  0  0
  -44.2910   -3.0990  -25.5510 C   0  0  0  0  0  0  0  0  0  0  0  0
  -46.6840   -2.8890  -25.1160 C   0  0  0  0  0  0  0  0  0  0  0  0
  -47.7740   -2.9550  -24.3290 C   0  0  0  0  0  0  0  0  0  0  0  0
  -47.6220   -3.3070  -22.9810 C   0  0  0  0  0  0  0  0  0  0  0  0
  -46.3980   -3.5960  -22.4890 C   0  0  0  0  0  0  0  0  0  0  0  0
  -44.8110   -4.9840  -27.2310 N   0  0  0  0  0  0  0  0  0  0  0  0
  -45.4410   -3.1800  -24.6410 N   0  0  0  0  0  0  0  0  0  0  0  0
  -42.8770   -4.9380  -26.2420 N   0  0  0  0  0  0  0  0  0  0  0  0
  -44.0800   -3.7790  -22.9190 O   0  0  0  0  0  0  0  0  0  0  0  0
  -42.9240   -6.0440  -27.1200 O   0  0  0  0  0  0  0  0  0  0  0  0
  3  1  1  0
  4  3  1  0
  6  5  1  0
  8  7  2  0
  9  8  1  0
 10  9  2  0
 10  2  1  0
 11  4  2  0
 11  5  1  0
 12  7  1  0
 12  6  1  0
 12  2  1  0
 13  5  2  0
 14  2  2  0
 15  4  1  0
 15 13  1  0
M  END
>  <id>  (64) 
64

>  <inchikey>  (64) 
LLAHWSDSLKVDNQ-UHFFFAOYSA-N

>  <alias>  (64) 
m0641a

>  <smiles>  (64) 
CCc1nc(Cn2ccccc2=O)no1

>  <path>  (64) 
/opt/xchem-fragalysis-2/maxwin/BulkDock/TARGETS/TRIM21/aligned_files/m0641a/m0641a.pdb

>  <distance_score>  (64) 
None

>  <energy_score>  (64) 
None

>  <compound>  (64) 
LLAHWSDSLKVDNQ-UHFFFAOYSA-N

>  <compound_id>  (64) 
59

>  <target>  (64) 
TRIM21

>  <tags>  (64) 
['Main status', 'GOOD count', 'hits', 'BAD count', '[Other] upload_1 2025-03-17', 'MEDIOCRE count', 'iter1_hits']

>  <inspirations>  (64) 
None

>  <subsites>  (64) 
None

>  <reference>  (64) 


>  <observation_longname>  (64) 
TRIM21-x0641_B_201_v1

>  <ConformerSites alias>  (64) 
1a - m0031/B/401

>  <CanonSites alias>  (64) 
1 - m0031/B/401/1

>  <CrystalformSites alias>  (64) 
F1c - m0611/B/301

>  <Quatassemblies alias>  (64) 
A1 - monomer

>  <Crystalforms alias>  (64) 
F1 - xtalform1

>  <ConformerSites upload name>  (64) 
1a - TRIM21-x0031/B/401

>  <CanonSites upload name>  (64) 
1 - TRIM21-x0031/B/401/1

>  <CrystalformSites upload name>  (64) 
F1c - TRIM21-x0611/B/301/1

>  <Quatassemblies upload name>  (64) 
A1 - monomer

>  <Crystalforms upload name>  (64) 
F1 - xtalform1

>  <ConformerSites short tag>  (64) 
1a - m0031/B/401

>  <CanonSites short tag>  (64) 
1 - m0031/B/401/1

>  <CrystalformSites short tag>  (64) 
F1c - m0611/B/301

>  <Quatassemblies short tag>  (64) 
A1 - monomer

>  <Crystalforms short tag>  (64) 
F1 - xtalform1

>  <Centroid res>  (64) 
TRIM21-x0031/B/39/B_v1

>  <Experiment code>  (64) 
TRIM21-x0641

>  <Pose>  (64) 
m0641a

>  <exports>  (64) 
/opt/xchem-fragalysis-2/maxwin/TRIM21_FFF/knitwork/iter1/iter1_hits.sdf

$$$$
m0642a
     RDKit          3D

 15 16  0  0  0  0  0  0  0  0999 V2000
  -45.8510   -2.7470  -22.8710 C   0  0  0  0  0  0  0  0  0  0  0  0
  -43.1130   -7.8910  -28.2940 C   0  0  0  0  0  0  0  0  0  0  0  0
  -42.3060   -6.6730  -27.9290 C   0  0  0  0  0  0  0  0  0  0  0  0
  -42.6540   -6.0930  -26.5900 C   0  0  0  0  0  0  0  0  0  0  0  0
  -43.9610   -5.2900  -26.5920 C   0  0  0  0  0  0  0  0  0  0  0  0
  -45.2520   -4.0440  -23.3120 C   0  0  0  0  0  0  0  0  0  0  0  0
  -47.1460   -4.3290  -24.8770 C   0  0  0  0  0  0  0  0  0  0  0  0
  -46.9270   -4.1420  -26.3610 C   0  0  0  0  0  0  0  0  0  0  0  0
  -46.4690   -5.4540  -26.9820 C   0  0  0  0  0  0  0  0  0  0  0  0
  -45.2400   -6.0810  -26.2830 C   0  0  2  0  0  0  0  0  0  0  0  0
  -45.4580   -6.0860  -24.7560 C   0  0  0  0  0  0  0  0  0  0  0  0
  -45.1650   -7.5240  -26.8220 C   0  0  0  0  0  0  0  0  0  0  0  0
  -44.6220   -7.7100  -28.2340 C   0  0  0  0  0  0  0  0  0  0  0  0
  -45.8970   -4.7740  -24.2520 N   0  0  0  0  0  0  0  0  0  0  0  0
  -44.1960   -4.4240  -22.8160 O   0  0  0  0  0  0  0  0  0  0  0  0
  3  2  1  0
  4  3  1  0
  5  4  1  0
  6  1  1  0
  8  7  1  0
  9  8  1  0
 10  9  1  6
 10  5  1  0
 11 10  1  0
 12 10  1  0
 13 12  1  0
 13  2  1  0
 14 11  1  0
 14  7  1  0
 14  6  1  0
 15  6  2  0
M  END
>  <id>  (65) 
65

>  <inchikey>  (65) 
JPZFTAQMOATKEN-UHFFFAOYSA-N

>  <alias>  (65) 
m0642a

>  <smiles>  (65) 
CC(=O)N1CCCC2(CCCCCC2)C1

>  <path>  (65) 
/opt/xchem-fragalysis-2/maxwin/BulkDock/TARGETS/TRIM21/aligned_files/m0642a/m0642a.pdb

>  <distance_score>  (65) 
None

>  <energy_score>  (65) 
None

>  <compound>  (65) 
JPZFTAQMOATKEN-UHFFFAOYSA-N

>  <compound_id>  (65) 
60

>  <target>  (65) 
TRIM21

>  <tags>  (65) 
['Main status', 'GOOD count', 'hits', 'BAD count', '[Other] upload_1 2025-03-17', 'MEDIOCRE count', 'iter1_hits']

>  <inspirations>  (65) 
None

>  <subsites>  (65) 
None

>  <reference>  (65) 


>  <observation_longname>  (65) 
TRIM21-x0642_B_201_v1

>  <ConformerSites alias>  (65) 
1a - m0031/B/401

>  <CanonSites alias>  (65) 
1 - m0031/B/401/1

>  <CrystalformSites alias>  (65) 
F1c - m0611/B/301

>  <Quatassemblies alias>  (65) 
A1 - monomer

>  <Crystalforms alias>  (65) 
F1 - xtalform1

>  <ConformerSites upload name>  (65) 
1a - TRIM21-x0031/B/401

>  <CanonSites upload name>  (65) 
1 - TRIM21-x0031/B/401/1

>  <CrystalformSites upload name>  (65) 
F1c - TRIM21-x0611/B/301/1

>  <Quatassemblies upload name>  (65) 
A1 - monomer

>  <Crystalforms upload name>  (65) 
F1 - xtalform1

>  <ConformerSites short tag>  (65) 
1a - m0031/B/401

>  <CanonSites short tag>  (65) 
1 - m0031/B/401/1

>  <CrystalformSites short tag>  (65) 
F1c - m0611/B/301

>  <Quatassemblies short tag>  (65) 
A1 - monomer

>  <Crystalforms short tag>  (65) 
F1 - xtalform1

>  <Centroid res>  (65) 
TRIM21-x0031/B/39/B_v1

>  <Experiment code>  (65) 
TRIM21-x0642

>  <Pose>  (65) 
m0642a

>  <exports>  (65) 
/opt/xchem-fragalysis-2/maxwin/TRIM21_FFF/knitwork/iter1/iter1_hits.sdf

$$$$
m0658a
     RDKit          3D

 15 16  0  0  0  0  0  0  0  0999 V2000
  -42.8540   -7.4150  -28.4460 C   0  0  0  0  0  0  0  0  0  0  0  0
  -43.1360   -6.3020  -29.4290 C   0  0  2  0  0  0  0  0  0  0  0  0
  -44.3340   -5.4600  -29.0400 C   0  0  0  0  0  0  0  0  0  0  0  0
  -45.7040   -6.7000  -30.6450 C   0  0  2  0  0  0  0  0  0  0  0  0
  -47.0630   -7.2760  -31.0060 C   0  0  0  0  0  0  0  0  0  0  0  0
  -44.5250   -7.6330  -30.8630 C   0  0  0  0  0  0  0  0  0  0  0  0
  -46.5250   -6.3380  -28.3030 C   0  0  0  0  0  0  0  0  0  0  0  0
  -46.5170   -5.4390  -27.2150 C   0  0  0  0  0  0  0  0  0  0  0  0
  -46.9370   -5.7830  -25.9230 C   0  0  0  0  0  0  0  0  0  0  0  0
  -45.5850   -6.1930  -29.2610 N   0  0  0  0  0  0  0  0  0  0  0  0
  -46.9930   -4.7050  -25.1680 N   0  0  0  0  0  0  0  0  0  0  0  0
  -46.1090   -4.1780  -27.3590 N   0  0  0  0  0  0  0  0  0  0  0  0
  -43.3060   -6.9000  -30.7160 O   0  0  0  0  0  0  0  0  0  0  0  0
  -47.4030   -7.1920  -28.3510 O   0  0  0  0  0  0  0  0  0  0  0  0
  -46.5120   -3.3750  -26.0050 S   0  0  0  0  0  0  0  0  0  0  0  0
  2  1  1  1
  3  2  1  0
  4  5  1  1
  6  4  1  0
  8  7  1  0
  9  8  1  0
 10  7  1  0
 10  4  1  0
 10  3  1  0
 11  9  2  0
 12  8  2  0
 13  6  1  0
 13  2  1  0
 14  7  2  0
 15 12  1  0
 15 11  1  0
M  END
>  <id>  (66) 
66

>  <inchikey>  (66) 
IKMQGCCZPWFVJE-RNFRBKRXSA-N

>  <alias>  (66) 
m0658a

>  <smiles>  (66) 
C[C@@H]1CN(C(=O)c2cnsn2)[C@H](C)CO1

>  <path>  (66) 
/opt/xchem-fragalysis-2/maxwin/BulkDock/TARGETS/TRIM21/aligned_files/m0658a/m0658a.pdb

>  <distance_score>  (66) 
None

>  <energy_score>  (66) 
None

>  <compound>  (66) 
IKMQGCCZPWFVJE-UHFFFAOYSA-N

>  <compound_id>  (66) 
61

>  <target>  (66) 
TRIM21

>  <tags>  (66) 
['Main status', 'GOOD count', 'hits', 'BAD count', '[Other] upload_1 2025-03-17', 'MEDIOCRE count', 'iter1_hits']

>  <inspirations>  (66) 
None

>  <subsites>  (66) 
None

>  <reference>  (66) 


>  <observation_longname>  (66) 
TRIM21-x0658_B_401_v1

>  <ConformerSites alias>  (66) 
1a - m0031/B/401

>  <CanonSites alias>  (66) 
1 - m0031/B/401/1

>  <CrystalformSites alias>  (66) 
F1c - m0611/B/301

>  <Quatassemblies alias>  (66) 
A1 - monomer

>  <Crystalforms alias>  (66) 
F1 - xtalform1

>  <ConformerSites upload name>  (66) 
1a - TRIM21-x0031/B/401

>  <CanonSites upload name>  (66) 
1 - TRIM21-x0031/B/401/1

>  <CrystalformSites upload name>  (66) 
F1c - TRIM21-x0611/B/301/1

>  <Quatassemblies upload name>  (66) 
A1 - monomer

>  <Crystalforms upload name>  (66) 
F1 - xtalform1

>  <ConformerSites short tag>  (66) 
1a - m0031/B/401

>  <CanonSites short tag>  (66) 
1 - m0031/B/401/1

>  <CrystalformSites short tag>  (66) 
F1c - m0611/B/301

>  <Quatassemblies short tag>  (66) 
A1 - monomer

>  <Crystalforms short tag>  (66) 
F1 - xtalform1

>  <Centroid res>  (66) 
TRIM21-x0031/B/39/B_v1

>  <Experiment code>  (66) 
TRIM21-x0658

>  <Pose>  (66) 
m0658a

>  <exports>  (66) 
/opt/xchem-fragalysis-2/maxwin/TRIM21_FFF/knitwork/iter1/iter1_hits.sdf

$$$$
m0659a
     RDKit          3D

 18 20  0  0  0  0  0  0  0  0999 V2000
  -44.4150   -4.5210  -24.0140 C   0  0  0  0  0  0  0  0  0  0  0  0
  -42.5230   -6.0480  -26.9170 C   0  0  0  0  0  0  0  0  0  0  0  0
  -43.4330   -6.9600  -27.3550 C   0  0  0  0  0  0  0  0  0  0  0  0
  -44.6180   -8.4080  -28.5620 C   0  0  0  0  0  0  0  0  0  0  0  0
  -44.6700   -7.0900  -26.7590 C   0  0  0  0  0  0  0  0  0  0  0  0
  -45.0440   -6.3450  -25.6760 C   0  0  0  0  0  0  0  0  0  0  0  0
  -45.7820   -3.0480  -22.7600 C   0  0  0  0  0  0  0  0  0  0  0  0
  -46.5880   -1.7580  -22.7810 C   0  0  0  0  0  0  0  0  0  0  0  0
  -47.9870   -1.8840  -23.3460 C   0  0  0  0  0  0  0  0  0  0  0  0
  -48.2460   -3.0870  -24.2150 C   0  0  0  0  0  0  0  0  0  0  0  0
  -47.3950   -3.1790  -25.4750 C   0  0  0  0  0  0  0  0  0  0  0  0
  -45.9030   -2.9430  -25.2870 C   0  0  0  0  0  0  0  0  0  0  0  0
  -44.1270   -5.3850  -25.2140 C   0  0  0  0  0  0  0  0  0  0  0  0
  -42.8910   -5.2630  -25.8230 C   0  0  0  0  0  0  0  0  0  0  0  0
  -45.3440   -3.5500  -24.0710 N   0  0  0  0  0  0  0  0  0  0  0  0
  -43.7930   -4.7130  -22.9720 O   0  0  0  0  0  0  0  0  0  0  0  0
  -43.3200   -7.8260  -28.4220 O   0  0  0  0  0  0  0  0  0  0  0  0
  -45.3880   -8.0680  -27.4060 O   0  0  0  0  0  0  0  0  0  0  0  0
  3  2  2  0
  5  3  1  0
  6  5  2  0
  8  7  1  0
  9  8  1  0
 10  9  1  0
 11 10  1  0
 12 11  1  0
 13  6  1  0
 13  1  1  0
 14 13  2  0
 14  2  1  0
 15 12  1  0
 15  7  1  0
 15  1  1  0
 16  1  2  0
 17  4  1  0
 17  3  1  0
 18  4  1  0
 18  5  1  0
M  END
>  <id>  (67) 
67

>  <inchikey>  (67) 
ABPXISKFLMGPJG-UHFFFAOYSA-N

>  <alias>  (67) 
m0659a

>  <smiles>  (67) 
O=C(c1ccc2c(c1)OCO2)N1CCCCCC1

>  <path>  (67) 
/opt/xchem-fragalysis-2/maxwin/BulkDock/TARGETS/TRIM21/aligned_files/m0659a/m0659a.pdb

>  <distance_score>  (67) 
None

>  <energy_score>  (67) 
None

>  <compound>  (67) 
ABPXISKFLMGPJG-UHFFFAOYSA-N

>  <compound_id>  (67) 
62

>  <target>  (67) 
TRIM21

>  <tags>  (67) 
['Main status', 'GOOD count', 'hits', 'BAD count', '[Other] upload_1 2025-03-17', 'MEDIOCRE count', 'iter1_hits']

>  <inspirations>  (67) 
None

>  <subsites>  (67) 
None

>  <reference>  (67) 


>  <observation_longname>  (67) 
TRIM21-x0659_B_201_v1

>  <ConformerSites alias>  (67) 
1a - m0031/B/401

>  <CanonSites alias>  (67) 
1 - m0031/B/401/1

>  <CrystalformSites alias>  (67) 
F1c - m0611/B/301

>  <Quatassemblies alias>  (67) 
A1 - monomer

>  <Crystalforms alias>  (67) 
F1 - xtalform1

>  <ConformerSites upload name>  (67) 
1a - TRIM21-x0031/B/401

>  <CanonSites upload name>  (67) 
1 - TRIM21-x0031/B/401/1

>  <CrystalformSites upload name>  (67) 
F1c - TRIM21-x0611/B/301/1

>  <Quatassemblies upload name>  (67) 
A1 - monomer

>  <Crystalforms upload name>  (67) 
F1 - xtalform1

>  <ConformerSites short tag>  (67) 
1a - m0031/B/401

>  <CanonSites short tag>  (67) 
1 - m0031/B/401/1

>  <CrystalformSites short tag>  (67) 
F1c - m0611/B/301

>  <Quatassemblies short tag>  (67) 
A1 - monomer

>  <Crystalforms short tag>  (67) 
F1 - xtalform1

>  <Centroid res>  (67) 
TRIM21-x0031/B/39/B_v1

>  <Experiment code>  (67) 
TRIM21-x0659

>  <Pose>  (67) 
m0659a

>  <exports>  (67) 
/opt/xchem-fragalysis-2/maxwin/TRIM21_FFF/knitwork/iter1/iter1_hits.sdf

$$$$
m0664a
     RDKit          3D

 17 18  0  0  0  0  0  0  0  0999 V2000
  -44.3930  -18.3270  -15.8750 C   0  0  0  0  0  0  0  0  0  0  0  0
  -37.6160  -11.3910  -17.7320 C   0  0  0  0  0  0  0  0  0  0  0  0
  -37.9260  -12.8590  -17.7160 C   0  0  0  0  0  0  0  0  0  0  0  0
  -40.3490  -15.4640  -19.2370 C   0  0  0  0  0  0  0  0  0  0  0  0
  -41.5280  -15.9570  -18.7030 C   0  0  0  0  0  0  0  0  0  0  0  0
  -42.9710  -17.8750  -15.9980 C   0  0  0  0  0  0  0  0  0  0  0  0
  -41.5730  -16.3180  -17.3650 C   0  0  0  0  0  0  0  0  0  0  0  0
  -40.4110  -16.2610  -16.6060 C   0  0  0  0  0  0  0  0  0  0  0  0
  -39.2350  -15.7880  -17.1640 C   0  0  0  0  0  0  0  0  0  0  0  0
  -39.1920  -15.3840  -18.4800 C   0  0  0  0  0  0  0  0  0  0  0  0
  -37.9080  -14.8700  -19.0760 C   0  0  0  0  0  0  0  0  0  0  0  0
  -38.5600  -12.6870  -20.0020 C   0  0  0  0  0  0  0  0  0  0  0  0
  -38.2500  -11.2120  -19.9700 C   0  0  0  0  0  0  0  0  0  0  0  0
  -42.7860  -16.8120  -16.8190 N   0  0  0  0  0  0  0  0  0  0  0  0
  -37.7260  -13.4110  -19.0470 N   0  0  0  0  0  0  0  0  0  0  0  0
  -42.0610  -18.4210  -15.3610 O   0  0  0  0  0  0  0  0  0  0  0  0
  -38.4230  -10.6720  -18.6660 O   0  0  0  0  0  0  0  0  0  0  0  0
  3  2  1  0
  5  4  2  0
  6  1  1  0
  7  5  1  0
  8  7  2  0
  9  8  1  0
 10  9  2  0
 10  4  1  0
 11 10  1  0
 13 12  1  0
 14  6  1  0
 14  7  1  0
 15 12  1  0
 15 11  1  0
 15  3  1  0
 16  6  2  0
 17 13  1  0
 17  2  1  0
M  END
>  <id>  (68) 
68

>  <inchikey>  (68) 
KFRGDVNNAPFDCF-UHFFFAOYSA-N

>  <alias>  (68) 
m0664a

>  <smiles>  (68) 
CC(=O)Nc1ccc(CN2CCOCC2)cc1

>  <path>  (68) 
/opt/xchem-fragalysis-2/maxwin/BulkDock/TARGETS/TRIM21/aligned_files/m0664a/m0664a.pdb

>  <distance_score>  (68) 
None

>  <energy_score>  (68) 
None

>  <compound>  (68) 
KFRGDVNNAPFDCF-UHFFFAOYSA-N

>  <compound_id>  (68) 
63

>  <target>  (68) 
TRIM21

>  <tags>  (68) 
['Main status', 'GOOD count', 'hits', 'BAD count', '[Other] upload_1 2025-03-17', 'MEDIOCRE count', 'iter1_hits']

>  <inspirations>  (68) 
None

>  <subsites>  (68) 
None

>  <reference>  (68) 


>  <observation_longname>  (68) 
TRIM21-x0664_B_302_v1

>  <ConformerSites alias>  (68) 
2a - m0043/B/302

>  <CanonSites alias>  (68) 
2 - m0043/B/302/1

>  <CrystalformSites alias>  (68) 
F1d - m0043/B/302

>  <Quatassemblies alias>  (68) 
A1 - monomer

>  <Crystalforms alias>  (68) 
F1 - xtalform1

>  <ConformerSites upload name>  (68) 
2a - TRIM21-x0043/B/302

>  <CanonSites upload name>  (68) 
2 - TRIM21-x0043/B/302/1

>  <CrystalformSites upload name>  (68) 
F1d - TRIM21-x0043/B/302/1

>  <Quatassemblies upload name>  (68) 
A1 - monomer

>  <Crystalforms upload name>  (68) 
F1 - xtalform1

>  <ConformerSites short tag>  (68) 
2a - m0043/B/302

>  <CanonSites short tag>  (68) 
2 - m0043/B/302/1

>  <CrystalformSites short tag>  (68) 
F1d - m0043/B/302

>  <Quatassemblies short tag>  (68) 
A1 - monomer

>  <Crystalforms short tag>  (68) 
F1 - xtalform1

>  <Centroid res>  (68) 
TRIM21-x0043/B/109/B_v1

>  <Experiment code>  (68) 
TRIM21-x0664

>  <Pose>  (68) 
m0664a

>  <exports>  (68) 
/opt/xchem-fragalysis-2/maxwin/TRIM21_FFF/knitwork/iter1/iter1_hits.sdf

$$$$
m0666a
     RDKit          3D

 16 17  0  0  0  0  0  0  0  0999 V2000
  -37.9240  -11.0300  -19.9750 C   0  0  0  0  0  0  0  0  0  0  0  0
  -39.4060  -18.4430  -18.5390 C   0  0  0  0  0  0  0  0  0  0  0  0
  -39.5870  -19.7190  -17.9320 C   0  0  0  0  0  0  0  0  0  0  0  0
  -38.9380  -20.7100  -18.5720 C   0  0  0  0  0  0  0  0  0  0  0  0
  -38.2160  -12.1410  -18.9690 C   0  0  2  0  0  0  0  0  0  0  0  0
  -37.6050  -11.7800  -17.6350 C   0  0  0  0  0  0  0  0  0  0  0  0
  -38.0720  -14.5900  -18.5490 C   0  0  0  0  0  0  0  0  0  0  0  0
  -37.4760  -15.8810  -19.0760 C   0  0  0  0  0  0  0  0  0  0  0  0
  -38.0040  -15.1410  -21.3400 C   0  0  0  0  0  0  0  0  0  0  0  0
  -38.5530  -13.8590  -20.7400 C   0  0  0  0  0  0  0  0  0  0  0  0
  -38.3560  -17.5360  -20.7150 C   0  0  0  0  0  0  0  0  0  0  0  0
  -38.6530  -18.5400  -19.7110 C   0  0  0  0  0  0  0  0  0  0  0  0
  -37.8680  -13.4910  -19.4970 N   0  0  0  0  0  0  0  0  0  0  0  0
  -38.0290  -16.2520  -20.3840 N   0  0  0  0  0  0  0  0  0  0  0  0
  -38.3810  -17.9190  -21.8860 O   0  0  0  0  0  0  0  0  0  0  0  0
  -38.1370  -20.1710  -19.9720 S   0  0  0  0  0  0  0  0  0  0  0  0
  3  2  1  0
  4  3  2  0
  5  1  1  6
  6  5  1  0
  8  7  1  0
 10  9  1  0
 12 11  1  0
 12  2  2  0
 13 10  1  0
 13  5  1  0
 13  7  1  0
 14 11  1  0
 14  9  1  0
 14  8  1  0
 15 11  2  0
 16 12  1  0
 16  4  1  0
M  END
>  <id>  (69) 
69

>  <inchikey>  (69) 
ZEVVAPJSMUTCRY-UHFFFAOYSA-N

>  <alias>  (69) 
m0666a

>  <smiles>  (69) 
CC(C)N1CCN(C(=O)c2cccs2)CC1

>  <path>  (69) 
/opt/xchem-fragalysis-2/maxwin/BulkDock/TARGETS/TRIM21/aligned_files/m0666a/m0666a.pdb

>  <distance_score>  (69) 
None

>  <energy_score>  (69) 
None

>  <compound>  (69) 
ZEVVAPJSMUTCRY-UHFFFAOYSA-N

>  <compound_id>  (69) 
64

>  <target>  (69) 
TRIM21

>  <tags>  (69) 
['Main status', 'GOOD count', 'hits', 'BAD count', '[Other] upload_1 2025-03-17', 'MEDIOCRE count', 'iter1_hits']

>  <inspirations>  (69) 
None

>  <subsites>  (69) 
None

>  <reference>  (69) 


>  <observation_longname>  (69) 
TRIM21-x0666_B_302_v1

>  <ConformerSites alias>  (69) 
2a - m0043/B/302

>  <CanonSites alias>  (69) 
2 - m0043/B/302/1

>  <CrystalformSites alias>  (69) 
F1d - m0043/B/302

>  <Quatassemblies alias>  (69) 
A1 - monomer

>  <Crystalforms alias>  (69) 
F1 - xtalform1

>  <ConformerSites upload name>  (69) 
2a - TRIM21-x0043/B/302

>  <CanonSites upload name>  (69) 
2 - TRIM21-x0043/B/302/1

>  <CrystalformSites upload name>  (69) 
F1d - TRIM21-x0043/B/302/1

>  <Quatassemblies upload name>  (69) 
A1 - monomer

>  <Crystalforms upload name>  (69) 
F1 - xtalform1

>  <ConformerSites short tag>  (69) 
2a - m0043/B/302

>  <CanonSites short tag>  (69) 
2 - m0043/B/302/1

>  <CrystalformSites short tag>  (69) 
F1d - m0043/B/302

>  <Quatassemblies short tag>  (69) 
A1 - monomer

>  <Crystalforms short tag>  (69) 
F1 - xtalform1

>  <Centroid res>  (69) 
TRIM21-x0043/B/109/B_v1

>  <Experiment code>  (69) 
TRIM21-x0666

>  <Pose>  (69) 
m0666a

>  <exports>  (69) 
/opt/xchem-fragalysis-2/maxwin/TRIM21_FFF/knitwork/iter1/iter1_hits.sdf

$$$$
m0677a
     RDKit          3D

 16 17  0  0  0  0  0  0  0  0999 V2000
  -42.9780   -4.6890  -27.2690 C   0  0  0  0  0  0  0  0  0  0  0  0
  -46.5980   -2.7230  -22.6390 C   0  0  0  0  0  0  0  0  0  0  0  0
  -47.7050   -2.6650  -23.6580 C   0  0  0  0  0  0  0  0  0  0  0  0
  -47.1530   -1.6790  -24.6110 C   0  0  0  0  0  0  0  0  0  0  0  0
  -43.5970   -5.8560  -26.5540 C   0  0  0  0  0  0  0  0  0  0  0  0
  -43.3390   -7.1710  -26.9210 C   0  0  0  0  0  0  0  0  0  0  0  0
  -43.9110   -8.2540  -26.2770 C   0  0  0  0  0  0  0  0  0  0  0  0
  -44.7840   -8.0300  -25.2360 C   0  0  0  0  0  0  0  0  0  0  0  0
  -45.0770   -6.7360  -24.8510 C   0  0  0  0  0  0  0  0  0  0  0  0
  -44.5010   -5.6640  -25.5090 C   0  0  0  0  0  0  0  0  0  0  0  0
  -44.6930   -3.9030  -23.7900 C   0  0  0  0  0  0  0  0  0  0  0  0
  -45.3360   -2.5870  -23.4900 C   0  0  1  0  0  0  0  0  0  0  0  0
  -44.7810   -4.3470  -25.0630 N   0  0  0  0  0  0  0  0  0  0  0  0
  -44.1140   -4.5050  -22.9080 O   0  0  0  0  0  0  0  0  0  0  0  0
  -45.7380   -1.9110  -24.6880 O   0  0  0  0  0  0  0  0  0  0  0  0
  -42.2460   -7.4850  -28.2320 Cl  0  0  0  0  0  0  0  0  0  0  0  0
  3  2  1  0
  4  3  1  0
  5  1  1  0
  6  5  2  0
  7  6  1  0
  8  7  2  0
  9  8  1  0
 10  9  2  0
 10  5  1  0
 12 11  1  6
 12  2  1  0
 13 10  1  0
 13 11  1  0
 14 11  2  0
 15 12  1  0
 15  4  1  0
 16  6  1  0
M  END
>  <id>  (70) 
70

>  <inchikey>  (70) 
BKWNJEPRFSSIFE-NSHDSACASA-N

>  <alias>  (70) 
m0677a

>  <smiles>  (70) 
Cc1c(Cl)cccc1NC(=O)[C@@H]1CCCO1

>  <path>  (70) 
/opt/xchem-fragalysis-2/maxwin/BulkDock/TARGETS/TRIM21/aligned_files/m0677a/m0677a.pdb

>  <distance_score>  (70) 
None

>  <energy_score>  (70) 
None

>  <compound>  (70) 
BKWNJEPRFSSIFE-UHFFFAOYSA-N

>  <compound_id>  (70) 
65

>  <target>  (70) 
TRIM21

>  <tags>  (70) 
['Main status', 'GOOD count', 'hits', 'BAD count', '[Other] upload_1 2025-03-17', 'MEDIOCRE count', 'iter1_hits']

>  <inspirations>  (70) 
None

>  <subsites>  (70) 
None

>  <reference>  (70) 


>  <observation_longname>  (70) 
TRIM21-x0677_B_401_v1

>  <ConformerSites alias>  (70) 
1a - m0031/B/401

>  <CanonSites alias>  (70) 
1 - m0031/B/401/1

>  <CrystalformSites alias>  (70) 
F1c - m0611/B/301

>  <Quatassemblies alias>  (70) 
A1 - monomer

>  <Crystalforms alias>  (70) 
F1 - xtalform1

>  <ConformerSites upload name>  (70) 
1a - TRIM21-x0031/B/401

>  <CanonSites upload name>  (70) 
1 - TRIM21-x0031/B/401/1

>  <CrystalformSites upload name>  (70) 
F1c - TRIM21-x0611/B/301/1

>  <Quatassemblies upload name>  (70) 
A1 - monomer

>  <Crystalforms upload name>  (70) 
F1 - xtalform1

>  <ConformerSites short tag>  (70) 
1a - m0031/B/401

>  <CanonSites short tag>  (70) 
1 - m0031/B/401/1

>  <CrystalformSites short tag>  (70) 
F1c - m0611/B/301

>  <Quatassemblies short tag>  (70) 
A1 - monomer

>  <Crystalforms short tag>  (70) 
F1 - xtalform1

>  <Centroid res>  (70) 
TRIM21-x0031/B/39/B_v1

>  <Experiment code>  (70) 
TRIM21-x0677

>  <Pose>  (70) 
m0677a

>  <exports>  (70) 
/opt/xchem-fragalysis-2/maxwin/TRIM21_FFF/knitwork/iter1/iter1_hits.sdf

$$$$
m0678a
     RDKit          3D

 15 16  0  0  0  0  0  0  0  0999 V2000
  -25.0980  -26.4970  -20.3360 C   0  0  1  0  0  0  0  0  0  0  0  0
  -27.9350  -29.9830  -22.9350 C   0  0  0  0  0  0  0  0  0  0  0  0
  -26.0700  -28.3630  -21.4690 C   0  0  0  0  0  0  0  0  0  0  0  0
  -26.3150  -28.0960  -22.9310 C   0  0  0  0  0  0  0  0  0  0  0  0
  -27.6420  -28.7380  -24.9660 C   0  0  0  0  0  0  0  0  0  0  0  0
  -29.1060  -29.1800  -24.9380 C   0  0  1  0  0  0  0  0  0  0  0  0
  -29.5000  -30.1610  -26.0540 C   0  0  0  0  0  0  0  0  0  0  0  0
  -29.2960  -31.5270  -25.4460 C   0  0  0  0  0  0  0  0  0  0  0  0
  -29.7870  -31.3730  -24.0330 C   0  0  0  0  0  0  0  0  0  0  0  0
  -29.3000  -29.9740  -23.6130 C   0  0  1  0  0  0  0  0  0  0  0  0
  -26.0450  -25.8170  -20.9290 F   0  0  0  0  0  0  0  0  0  0  0  0
  -25.5440  -26.7060  -19.1110 F   0  0  0  0  0  0  0  0  0  0  0  0
  -27.2250  -28.8600  -23.5620 N   0  0  0  0  0  0  0  0  0  0  0  0
  -24.8910  -27.7230  -21.0110 O   0  0  0  0  0  0  0  0  0  0  0  0
  -25.6990  -27.2210  -23.5340 O   0  0  0  0  0  0  0  0  0  0  0  0
  4  3  1  0
  6  5  1  6
  7  6  1  0
  8  7  1  0
  9  8  1  0
 10  9  1  6
 10  6  1  0
 10  2  1  0
  1 11  1  6
 12  1  1  0
 13  5  1  0
 13  2  1  0
 13  4  1  0
 14  3  1  0
 14  1  1  0
 15  4  2  0
M  END
>  <id>  (71) 
71

>  <inchikey>  (71) 
GFKMUMPBDKROCT-OCAPTIKFSA-N

>  <alias>  (71) 
m0678a

>  <smiles>  (71) 
O=C(COC(F)F)N1C[C@H]2CCC[C@H]2C1

>  <path>  (71) 
/opt/xchem-fragalysis-2/maxwin/BulkDock/TARGETS/TRIM21/aligned_files/m0678a/m0678a.pdb

>  <distance_score>  (71) 
None

>  <energy_score>  (71) 
None

>  <compound>  (71) 
GFKMUMPBDKROCT-UHFFFAOYSA-N

>  <compound_id>  (71) 
66

>  <target>  (71) 
TRIM21

>  <tags>  (71) 
['Main status', 'GOOD count', 'hits', 'BAD count', '[Other] upload_1 2025-03-17', 'MEDIOCRE count', 'iter1_hits']

>  <inspirations>  (71) 
None

>  <subsites>  (71) 
None

>  <reference>  (71) 


>  <observation_longname>  (71) 
TRIM21-x0678_B_302_v1

>  <ConformerSites alias>  (71) 
3a - m0176/B/302

>  <CanonSites alias>  (71) 
3 - m0176/B/302/1

>  <CrystalformSites alias>  (71) 
F1e - m0176/B/302

>  <Quatassemblies alias>  (71) 
A1 - monomer

>  <Crystalforms alias>  (71) 
F1 - xtalform1

>  <ConformerSites upload name>  (71) 
3a - TRIM21-x0176/B/302

>  <CanonSites upload name>  (71) 
3 - TRIM21-x0176/B/302/1

>  <CrystalformSites upload name>  (71) 
F1e - TRIM21-x0176/B/302/1

>  <Quatassemblies upload name>  (71) 
A1 - monomer

>  <Crystalforms upload name>  (71) 
F1 - xtalform1

>  <ConformerSites short tag>  (71) 
3a - m0176/B/302

>  <CanonSites short tag>  (71) 
3 - m0176/B/302/1

>  <CrystalformSites short tag>  (71) 
F1e - m0176/B/302

>  <Quatassemblies short tag>  (71) 
A1 - monomer

>  <Crystalforms short tag>  (71) 
F1 - xtalform1

>  <Centroid res>  (71) 
TRIM21-x0176/B/101/B_v1

>  <Experiment code>  (71) 
TRIM21-x0678

>  <Pose>  (71) 
m0678a

>  <exports>  (71) 
/opt/xchem-fragalysis-2/maxwin/TRIM21_FFF/knitwork/iter1/iter1_hits.sdf

$$$$
m0717a
     RDKit          3D

 15 16  0  0  0  0  0  0  0  0999 V2000
  -43.9330   -4.0080  -23.3090 C   0  0  0  0  0  0  0  0  0  0  0  0
  -45.1960   -4.1770  -27.1880 C   0  0  0  0  0  0  0  0  0  0  0  0
  -45.7840   -4.3380  -25.7900 C   0  0  2  0  0  0  0  0  0  0  0  0
  -47.1510   -4.9970  -25.9130 C   0  0  0  0  0  0  0  0  0  0  0  0
  -47.0110   -6.3190  -26.6350 C   0  0  0  0  0  0  0  0  0  0  0  0
  -45.0920   -5.5220  -27.9020 C   0  0  2  0  0  0  0  0  0  0  0  0
  -44.0610   -6.5260  -27.3430 C   0  0  0  0  0  0  0  0  0  0  0  0
  -42.9500   -6.6200  -28.3760 C   0  0  0  0  0  0  0  0  0  0  0  0
  -43.6330   -6.3660  -29.6810 C   0  0  0  0  0  0  0  0  0  0  0  0
  -44.6570   -5.2940  -29.3590 C   0  0  0  0  0  0  0  0  0  0  0  0
  -45.8660   -3.0840  -25.0120 N   0  0  0  0  0  0  0  0  0  0  0  0
  -44.8020   -1.5640  -23.3430 O   0  0  0  0  0  0  0  0  0  0  0  0
  -46.3180   -3.3490  -22.5630 O   0  0  0  0  0  0  0  0  0  0  0  0
  -46.3780   -6.1550  -27.9240 O   0  0  0  0  0  0  0  0  0  0  0  0
  -45.2840   -2.9100  -23.4520 S   0  0  2  0  0  0  0  0  0  0  0  0
  3  2  1  0
  4  3  1  0
  5  4  1  0
  6  2  1  1
  7  6  1  0
  8  7  1  0
  9  8  1  0
 10  9  1  0
 10  6  1  0
  3 11  1  6
 14  6  1  0
 14  5  1  0
 15 13  2  0
 15 12  2  0
 15 11  1  0
 15  1  1  6
M  END
>  <id>  (72) 
72

>  <inchikey>  (72) 
FKSXOIFBVQFQLW-VIFPVBQESA-N

>  <alias>  (72) 
m0717a

>  <smiles>  (72) 
CS(=O)(=O)N[C@H]1CCOC2(CCCC2)C1

>  <path>  (72) 
/opt/xchem-fragalysis-2/maxwin/BulkDock/TARGETS/TRIM21/aligned_files/m0717a/m0717a.pdb

>  <distance_score>  (72) 
None

>  <energy_score>  (72) 
None

>  <compound>  (72) 
FKSXOIFBVQFQLW-UHFFFAOYSA-N

>  <compound_id>  (72) 
67

>  <target>  (72) 
TRIM21

>  <tags>  (72) 
['Main status', 'GOOD count', 'hits', 'BAD count', '[Other] upload_1 2025-03-17', 'MEDIOCRE count', 'iter1_hits']

>  <inspirations>  (72) 
None

>  <subsites>  (72) 
None

>  <reference>  (72) 


>  <observation_longname>  (72) 
TRIM21-x0717_B_201_v1

>  <ConformerSites alias>  (72) 
1a - m0031/B/401

>  <CanonSites alias>  (72) 
1 - m0031/B/401/1

>  <CrystalformSites alias>  (72) 
F1c - m0611/B/301

>  <Quatassemblies alias>  (72) 
A1 - monomer

>  <Crystalforms alias>  (72) 
F1 - xtalform1

>  <ConformerSites upload name>  (72) 
1a - TRIM21-x0031/B/401

>  <CanonSites upload name>  (72) 
1 - TRIM21-x0031/B/401/1

>  <CrystalformSites upload name>  (72) 
F1c - TRIM21-x0611/B/301/1

>  <Quatassemblies upload name>  (72) 
A1 - monomer

>  <Crystalforms upload name>  (72) 
F1 - xtalform1

>  <ConformerSites short tag>  (72) 
1a - m0031/B/401

>  <CanonSites short tag>  (72) 
1 - m0031/B/401/1

>  <CrystalformSites short tag>  (72) 
F1c - m0611/B/301

>  <Quatassemblies short tag>  (72) 
A1 - monomer

>  <Crystalforms short tag>  (72) 
F1 - xtalform1

>  <Centroid res>  (72) 
TRIM21-x0031/B/39/B_v1

>  <Experiment code>  (72) 
TRIM21-x0717

>  <Pose>  (72) 
m0717a

>  <exports>  (72) 
/opt/xchem-fragalysis-2/maxwin/TRIM21_FFF/knitwork/iter1/iter1_hits.sdf

$$$$
m0718a
     RDKit          3D

 14 14  0  0  0  0  0  0  0  0999 V2000
  -46.2910   -5.5390  -24.8130 C   0  0  0  0  0  0  0  0  0  0  0  0
  -45.5580   -4.7040  -25.8490 C   0  0  2  0  0  0  0  0  0  0  0  0
  -44.1160   -1.7440  -23.3620 C   0  0  0  0  0  0  0  0  0  0  0  0
  -44.4620   -5.4800  -26.6350 C   0  0  0  0  0  0  0  0  0  0  0  0
  -43.3810   -4.8170  -27.2160 C   0  0  0  0  0  0  0  0  0  0  0  0
  -42.4120   -5.5070  -27.9250 C   0  0  0  0  0  0  0  0  0  0  0  0
  -42.5040   -6.8700  -28.0820 C   0  0  0  0  0  0  0  0  0  0  0  0
  -43.5590   -7.5530  -27.5310 C   0  0  0  0  0  0  0  0  0  0  0  0
  -44.5280   -6.8590  -26.8240 C   0  0  0  0  0  0  0  0  0  0  0  0
  -45.0680   -3.4640  -25.2040 N   0  0  0  0  0  0  0  0  0  0  0  0
  -46.3030   -3.0730  -23.0990 O   0  0  0  0  0  0  0  0  0  0  0  0
  -44.1490   -4.3020  -23.0610 O   0  0  0  0  0  0  0  0  0  0  0  0
  -44.9690   -3.2560  -23.5980 S   0  0  2  0  0  0  0  0  0  0  0  0
  -45.8470   -7.7790  -26.1500 Cl  0  0  0  0  0  0  0  0  0  0  0  0
  2  1  1  1
  4  2  1  0
  5  4  2  0
  6  5  1  0
  7  6  2  0
  8  7  1  0
  9  4  1  0
  9  8  2  0
 10  2  1  0
 13 12  2  0
 13 11  2  0
 13 10  1  0
 13  3  1  6
 14  9  1  0
M  END
>  <id>  (73) 
73

>  <inchikey>  (73) 
HMJIOKFBRSKMHO-SSDOTTSWSA-N

>  <alias>  (73) 
m0718a

>  <smiles>  (73) 
C[C@@H](NS(C)(=O)=O)c1ccccc1Cl

>  <path>  (73) 
/opt/xchem-fragalysis-2/maxwin/BulkDock/TARGETS/TRIM21/aligned_files/m0718a/m0718a.pdb

>  <distance_score>  (73) 
None

>  <energy_score>  (73) 
None

>  <compound>  (73) 
HMJIOKFBRSKMHO-UHFFFAOYSA-N

>  <compound_id>  (73) 
68

>  <target>  (73) 
TRIM21

>  <tags>  (73) 
['Main status', 'GOOD count', 'hits', 'BAD count', '[Other] upload_1 2025-03-17', 'MEDIOCRE count', 'iter1_hits']

>  <inspirations>  (73) 
None

>  <subsites>  (73) 
None

>  <reference>  (73) 


>  <observation_longname>  (73) 
TRIM21-x0718_B_302_v1

>  <ConformerSites alias>  (73) 
1a - m0031/B/401

>  <CanonSites alias>  (73) 
1 - m0031/B/401/1

>  <CrystalformSites alias>  (73) 
F1c - m0611/B/301

>  <Quatassemblies alias>  (73) 
A1 - monomer

>  <Crystalforms alias>  (73) 
F1 - xtalform1

>  <ConformerSites upload name>  (73) 
1a - TRIM21-x0031/B/401

>  <CanonSites upload name>  (73) 
1 - TRIM21-x0031/B/401/1

>  <CrystalformSites upload name>  (73) 
F1c - TRIM21-x0611/B/301/1

>  <Quatassemblies upload name>  (73) 
A1 - monomer

>  <Crystalforms upload name>  (73) 
F1 - xtalform1

>  <ConformerSites short tag>  (73) 
1a - m0031/B/401

>  <CanonSites short tag>  (73) 
1 - m0031/B/401/1

>  <CrystalformSites short tag>  (73) 
F1c - m0611/B/301

>  <Quatassemblies short tag>  (73) 
A1 - monomer

>  <Crystalforms short tag>  (73) 
F1 - xtalform1

>  <Centroid res>  (73) 
TRIM21-x0031/B/39/B_v1

>  <Experiment code>  (73) 
TRIM21-x0718

>  <Pose>  (73) 
m0718a

>  <exports>  (73) 
/opt/xchem-fragalysis-2/maxwin/TRIM21_FFF/knitwork/iter1/iter1_hits.sdf

$$$$
m0728a
     RDKit          3D

  9  9  0  0  0  0  0  0  0  0999 V2000
  -40.6300  -17.0540  -15.6910 C   0  0  0  0  0  0  0  0  0  0  0  0
  -40.3850  -18.5020  -17.6800 C   0  0  0  0  0  0  0  0  0  0  0  0
  -39.2180  -16.3460  -17.5680 C   0  0  0  0  0  0  0  0  0  0  0  0
  -38.3730  -16.6750  -18.6450 C   0  0  0  0  0  0  0  0  0  0  0  0
  -37.5380  -15.7290  -19.1710 C   0  0  0  0  0  0  0  0  0  0  0  0
  -38.2390  -14.1460  -17.7060 C   0  0  0  0  0  0  0  0  0  0  0  0
  -39.1100  -15.0180  -17.1020 C   0  0  0  0  0  0  0  0  0  0  0  0
  -40.0550  -17.2610  -17.0060 N   0  0  0  0  0  0  0  0  0  0  0  0
  -37.4530  -14.4710  -18.7320 N   0  0  0  0  0  0  0  0  0  0  0  0
  4  3  2  0
  5  4  1  0
  7  6  2  0
  7  3  1  0
  8  2  1  0
  8  1  1  0
  8  3  1  0
  9  6  1  0
  9  5  2  0
M  END
>  <id>  (74) 
74

>  <inchikey>  (74) 
VHYFNPMBLIVWCW-UHFFFAOYSA-N

>  <alias>  (74) 
m0728a

>  <smiles>  (74) 
CN(C)c1ccncc1

>  <path>  (74) 
/opt/xchem-fragalysis-2/maxwin/BulkDock/TARGETS/TRIM21/aligned_files/m0728a/m0728a.pdb

>  <distance_score>  (74) 
None

>  <energy_score>  (74) 
None

>  <compound>  (74) 
VHYFNPMBLIVWCW-UHFFFAOYSA-N

>  <compound_id>  (74) 
69

>  <target>  (74) 
TRIM21

>  <tags>  (74) 
['Main status', 'GOOD count', 'hits', 'BAD count', '[Other] upload_1 2025-03-17', 'MEDIOCRE count', 'iter1_hits']

>  <inspirations>  (74) 
None

>  <subsites>  (74) 
None

>  <reference>  (74) 


>  <observation_longname>  (74) 
TRIM21-x0728_B_302_v1

>  <ConformerSites alias>  (74) 
2a - m0043/B/302

>  <CanonSites alias>  (74) 
2 - m0043/B/302/1

>  <CrystalformSites alias>  (74) 
F1d - m0043/B/302

>  <Quatassemblies alias>  (74) 
A1 - monomer

>  <Crystalforms alias>  (74) 
F1 - xtalform1

>  <ConformerSites upload name>  (74) 
2a - TRIM21-x0043/B/302

>  <CanonSites upload name>  (74) 
2 - TRIM21-x0043/B/302/1

>  <CrystalformSites upload name>  (74) 
F1d - TRIM21-x0043/B/302/1

>  <Quatassemblies upload name>  (74) 
A1 - monomer

>  <Crystalforms upload name>  (74) 
F1 - xtalform1

>  <ConformerSites short tag>  (74) 
2a - m0043/B/302

>  <CanonSites short tag>  (74) 
2 - m0043/B/302/1

>  <CrystalformSites short tag>  (74) 
F1d - m0043/B/302

>  <Quatassemblies short tag>  (74) 
A1 - monomer

>  <Crystalforms short tag>  (74) 
F1 - xtalform1

>  <Centroid res>  (74) 
TRIM21-x0043/B/109/B_v1

>  <Experiment code>  (74) 
TRIM21-x0728

>  <Pose>  (74) 
m0728a

>  <exports>  (74) 
/opt/xchem-fragalysis-2/maxwin/TRIM21_FFF/knitwork/iter1/iter1_hits.sdf

$$$$
m0731a
     RDKit          3D

 15 15  0  0  0  0  0  0  0  0999 V2000
  -46.3390   -5.9580  -24.9680 C   0  0  0  0  0  0  0  0  0  0  0  0
  -46.1910   -4.0740  -26.4950 C   0  0  0  0  0  0  0  0  0  0  0  0
  -45.9380   -4.9030  -27.7530 C   0  0  0  0  0  0  0  0  0  0  0  0
  -43.4840   -4.6630  -27.4750 C   0  0  0  0  0  0  0  0  0  0  0  0
  -42.6870   -5.8320  -26.9230 C   0  0  0  0  0  0  0  0  0  0  0  0
  -42.3260   -6.8330  -28.0030 C   0  0  0  0  0  0  0  0  0  0  0  0
  -43.5660   -7.2150  -28.7890 C   0  0  0  0  0  0  0  0  0  0  0  0
  -44.3020   -5.9820  -29.2900 C   0  0  0  0  0  0  0  0  0  0  0  0
  -46.7360   -3.1600  -23.2380 C   0  0  0  0  0  0  0  0  0  0  0  0
  -45.6690   -4.6930  -25.2620 N   0  0  0  0  0  0  0  0  0  0  0  0
  -44.6780   -5.1360  -28.1630 N   0  0  0  0  0  0  0  0  0  0  0  0
  -46.9000   -5.3930  -28.3480 O   0  0  0  0  0  0  0  0  0  0  0  0
  -44.5160   -4.5420  -23.0720 O   0  0  0  0  0  0  0  0  0  0  0  0
  -44.5900   -2.6140  -24.5680 O   0  0  0  0  0  0  0  0  0  0  0  0
  -45.2560   -3.7420  -24.0010 S   0  0  2  0  0  0  0  0  0  0  0  0
  3  2  1  0
  5  4  1  0
  6  5  1  0
  7  6  1  0
  8  7  1  0
 10  1  1  0
 10  2  1  0
 11  8  1  0
 11  3  1  0
 11  4  1  0
 12  3  2  0
 15 14  2  0
 15 13  2  0
 15 10  1  0
 15  9  1  1
M  END
>  <id>  (75) 
75

>  <inchikey>  (75) 
CPSZUJVUZDHXHY-UHFFFAOYSA-N

>  <alias>  (75) 
m0731a

>  <smiles>  (75) 
CN(CC(=O)N1CCCCC1)S(C)(=O)=O

>  <path>  (75) 
/opt/xchem-fragalysis-2/maxwin/BulkDock/TARGETS/TRIM21/aligned_files/m0731a/m0731a.pdb

>  <distance_score>  (75) 
None

>  <energy_score>  (75) 
None

>  <compound>  (75) 
CPSZUJVUZDHXHY-UHFFFAOYSA-N

>  <compound_id>  (75) 
70

>  <target>  (75) 
TRIM21

>  <tags>  (75) 
['Main status', 'GOOD count', 'hits', 'BAD count', '[Other] upload_1 2025-03-17', 'MEDIOCRE count', 'iter1_hits']

>  <inspirations>  (75) 
None

>  <subsites>  (75) 
None

>  <reference>  (75) 


>  <observation_longname>  (75) 
TRIM21-x0731_B_401_v1

>  <ConformerSites alias>  (75) 
1a - m0031/B/401

>  <CanonSites alias>  (75) 
1 - m0031/B/401/1

>  <CrystalformSites alias>  (75) 
F1c - m0611/B/301

>  <Quatassemblies alias>  (75) 
A1 - monomer

>  <Crystalforms alias>  (75) 
F1 - xtalform1

>  <ConformerSites upload name>  (75) 
1a - TRIM21-x0031/B/401

>  <CanonSites upload name>  (75) 
1 - TRIM21-x0031/B/401/1

>  <CrystalformSites upload name>  (75) 
F1c - TRIM21-x0611/B/301/1

>  <Quatassemblies upload name>  (75) 
A1 - monomer

>  <Crystalforms upload name>  (75) 
F1 - xtalform1

>  <ConformerSites short tag>  (75) 
1a - m0031/B/401

>  <CanonSites short tag>  (75) 
1 - m0031/B/401/1

>  <CrystalformSites short tag>  (75) 
F1c - m0611/B/301

>  <Quatassemblies short tag>  (75) 
A1 - monomer

>  <Crystalforms short tag>  (75) 
F1 - xtalform1

>  <Centroid res>  (75) 
TRIM21-x0031/B/39/B_v1

>  <Experiment code>  (75) 
TRIM21-x0731

>  <Pose>  (75) 
m0731a

>  <exports>  (75) 
/opt/xchem-fragalysis-2/maxwin/TRIM21_FFF/knitwork/iter1/iter1_hits.sdf

$$$$
m0733a
     RDKit          3D

 14 14  0  0  0  0  0  0  0  0999 V2000
  -42.2900   -6.7760  -28.4040 C   0  0  0  0  0  0  0  0  0  0  0  0
  -43.3890   -6.3450  -29.3680 C   0  0  2  0  0  0  0  0  0  0  0  0
  -45.4990   -6.8900  -32.2170 C   0  0  0  0  0  0  0  0  0  0  0  0
  -44.7290   -6.3120  -28.6890 C   0  0  0  0  0  0  0  0  0  0  0  0
  -45.4420   -5.2520  -28.2070 C   0  0  0  0  0  0  0  0  0  0  0  0
  -47.7460   -7.7850  -27.3340 C   0  0  0  0  0  0  0  0  0  0  0  0
  -45.4940   -7.4380  -28.4340 C   0  0  0  0  0  0  0  0  0  0  0  0
  -45.2420   -8.8770  -28.7340 C   0  0  0  0  0  0  0  0  0  0  0  0
  -43.4110   -7.2640  -30.5230 N   0  0  0  0  0  0  0  0  0  0  0  0
  -46.5990   -5.6520  -27.6800 N   0  0  0  0  0  0  0  0  0  0  0  0
  -46.6210   -7.0030  -27.8210 N   0  0  0  0  0  0  0  0  0  0  0  0
  -43.1400   -7.6560  -32.9610 O   0  0  0  0  0  0  0  0  0  0  0  0
  -43.4080   -5.3710  -32.0780 O   0  0  0  0  0  0  0  0  0  0  0  0
  -43.7570   -6.7570  -32.0230 S   0  0  1  0  0  0  0  0  0  0  0  0
  2  1  1  1
  4  2  1  0
  5  4  1  0
  7  4  2  0
  8  7  1  0
  9  2  1  0
 10  5  2  0
 11 10  1  0
 11  7  1  0
 11  6  1  0
 14  3  1  6
 14 12  2  0
 14  9  1  0
 14 13  2  0
M  END
>  <id>  (76) 
76

>  <inchikey>  (76) 
DPWJNSPPALAEBZ-ZCFIWIBFSA-N

>  <alias>  (76) 
m0733a

>  <smiles>  (76) 
Cc1c([C@@H](C)NS(C)(=O)=O)cnn1C

>  <path>  (76) 
/opt/xchem-fragalysis-2/maxwin/BulkDock/TARGETS/TRIM21/aligned_files/m0733a/m0733a.pdb

>  <distance_score>  (76) 
None

>  <energy_score>  (76) 
None

>  <compound>  (76) 
DPWJNSPPALAEBZ-UHFFFAOYSA-N

>  <compound_id>  (76) 
71

>  <target>  (76) 
TRIM21

>  <tags>  (76) 
['Main status', 'GOOD count', 'hits', 'BAD count', '[Other] upload_1 2025-03-17', 'MEDIOCRE count', 'iter1_hits']

>  <inspirations>  (76) 
None

>  <subsites>  (76) 
None

>  <reference>  (76) 


>  <observation_longname>  (76) 
TRIM21-x0733_B_302_v1

>  <ConformerSites alias>  (76) 
1a - m0031/B/401

>  <CanonSites alias>  (76) 
1 - m0031/B/401/1

>  <CrystalformSites alias>  (76) 
F1b - m0140/B/402

>  <Quatassemblies alias>  (76) 
A1 - monomer

>  <Crystalforms alias>  (76) 
F1 - xtalform1

>  <ConformerSites upload name>  (76) 
1a - TRIM21-x0031/B/401

>  <CanonSites upload name>  (76) 
1 - TRIM21-x0031/B/401/1

>  <CrystalformSites upload name>  (76) 
F1b - TRIM21-x0140/B/402/1

>  <Quatassemblies upload name>  (76) 
A1 - monomer

>  <Crystalforms upload name>  (76) 
F1 - xtalform1

>  <ConformerSites short tag>  (76) 
1a - m0031/B/401

>  <CanonSites short tag>  (76) 
1 - m0031/B/401/1

>  <CrystalformSites short tag>  (76) 
F1b - m0140/B/402

>  <Quatassemblies short tag>  (76) 
A1 - monomer

>  <Crystalforms short tag>  (76) 
F1 - xtalform1

>  <Centroid res>  (76) 
TRIM21-x0031/B/39/B_v1

>  <Experiment code>  (76) 
TRIM21-x0733

>  <Pose>  (76) 
m0733a

>  <exports>  (76) 
/opt/xchem-fragalysis-2/maxwin/TRIM21_FFF/knitwork/iter1/iter1_hits.sdf

$$$$
m0743a
     RDKit          3D

 15 15  0  0  0  0  0  0  0  0999 V2000
  -42.4940   -6.4430  -27.4210 C   0  0  0  0  0  0  0  0  0  0  0  0
  -43.2910   -5.5170  -28.2970 C   0  0  0  0  0  0  0  0  0  0  0  0
  -44.7390   -5.9400  -28.3240 C   0  0  0  0  0  0  0  0  0  0  0  0
  -47.0820   -5.5190  -27.6520 C   0  0  0  0  0  0  0  0  0  0  0  0
  -47.5990   -5.8510  -26.2630 C   0  0  0  0  0  0  0  0  0  0  0  0
  -47.3920   -4.6820  -25.2990 C   0  0  0  0  0  0  0  0  0  0  0  0
  -46.4400   -3.6400  -25.8770 C   0  0  2  0  0  0  0  0  0  0  0  0
  -45.2510   -4.2430  -26.6280 C   0  0  0  0  0  0  0  0  0  0  0  0
  -46.7950   -3.0200  -22.3340 C   0  0  0  0  0  0  0  0  0  0  0  0
  -45.6470   -5.2430  -27.6160 N   0  0  0  0  0  0  0  0  0  0  0  0
  -45.8800   -2.7050  -24.8870 N   0  0  0  0  0  0  0  0  0  0  0  0
  -45.0600   -6.9710  -28.9050 O   0  0  0  0  0  0  0  0  0  0  0  0
  -44.4590   -3.8010  -23.0340 O   0  0  0  0  0  0  0  0  0  0  0  0
  -44.9930   -1.3730  -23.0010 O   0  0  0  0  0  0  0  0  0  0  0  0
  -45.3720   -2.7160  -23.3020 S   0  0  2  0  0  0  0  0  0  0  0  0
  2  1  1  0
  3  2  1  0
  5  4  1  0
  6  5  1  0
  7  6  1  0
  8  7  1  0
 10  4  1  0
 10  3  1  0
 10  8  1  0
  7 11  1  1
 12  3  2  0
 15 14  2  0
 15 13  2  0
 15 11  1  0
 15  9  1  1
M  END
>  <id>  (77) 
77

>  <inchikey>  (77) 
KKRXYIAKNUZOPG-MRVPVSSYSA-N

>  <alias>  (77) 
m0743a

>  <smiles>  (77) 
CCC(=O)N1CCC[C@@H](NS(C)(=O)=O)C1

>  <path>  (77) 
/opt/xchem-fragalysis-2/maxwin/BulkDock/TARGETS/TRIM21/aligned_files/m0743a/m0743a.pdb

>  <distance_score>  (77) 
None

>  <energy_score>  (77) 
None

>  <compound>  (77) 
KKRXYIAKNUZOPG-UHFFFAOYSA-N

>  <compound_id>  (77) 
72

>  <target>  (77) 
TRIM21

>  <tags>  (77) 
['Main status', 'GOOD count', 'hits', 'BAD count', '[Other] upload_1 2025-03-17', 'MEDIOCRE count', 'iter1_hits']

>  <inspirations>  (77) 
None

>  <subsites>  (77) 
None

>  <reference>  (77) 


>  <observation_longname>  (77) 
TRIM21-x0743_B_201_v1

>  <ConformerSites alias>  (77) 
1a - m0031/B/401

>  <CanonSites alias>  (77) 
1 - m0031/B/401/1

>  <CrystalformSites alias>  (77) 
F1c - m0611/B/301

>  <Quatassemblies alias>  (77) 
A1 - monomer

>  <Crystalforms alias>  (77) 
F1 - xtalform1

>  <ConformerSites upload name>  (77) 
1a - TRIM21-x0031/B/401

>  <CanonSites upload name>  (77) 
1 - TRIM21-x0031/B/401/1

>  <CrystalformSites upload name>  (77) 
F1c - TRIM21-x0611/B/301/1

>  <Quatassemblies upload name>  (77) 
A1 - monomer

>  <Crystalforms upload name>  (77) 
F1 - xtalform1

>  <ConformerSites short tag>  (77) 
1a - m0031/B/401

>  <CanonSites short tag>  (77) 
1 - m0031/B/401/1

>  <CrystalformSites short tag>  (77) 
F1c - m0611/B/301

>  <Quatassemblies short tag>  (77) 
A1 - monomer

>  <Crystalforms short tag>  (77) 
F1 - xtalform1

>  <Centroid res>  (77) 
TRIM21-x0031/B/39/B_v1

>  <Experiment code>  (77) 
TRIM21-x0743

>  <Pose>  (77) 
m0743a

>  <exports>  (77) 
/opt/xchem-fragalysis-2/maxwin/TRIM21_FFF/knitwork/iter1/iter1_hits.sdf

$$$$
m0744a
     RDKit          3D

 14 14  0  0  0  0  0  0  0  0999 V2000
  -45.5440   -6.3050  -28.2560 C   0  0  0  0  0  0  0  0  0  0  0  0
  -44.3550   -5.6830  -28.6140 C   0  0  0  0  0  0  0  0  0  0  0  0
  -43.2850   -6.4420  -29.0460 C   0  0  0  0  0  0  0  0  0  0  0  0
  -43.4020   -7.8190  -29.1200 C   0  0  0  0  0  0  0  0  0  0  0  0
  -44.5850   -8.4530  -28.7680 C   0  0  0  0  0  0  0  0  0  0  0  0
  -45.6710   -7.7080  -28.3250 C   0  0  0  0  0  0  0  0  0  0  0  0
  -47.1500   -9.5300  -27.7790 C   0  0  1  0  0  0  0  0  0  0  0  0
  -46.7330  -10.2090  -28.8590 F   0  0  0  0  0  0  0  0  0  0  0  0
  -46.4030   -9.9840  -26.7640 F   0  0  0  0  0  0  0  0  0  0  0  0
  -47.4280   -5.9160  -26.3090 N   0  0  0  0  0  0  0  0  0  0  0  0
  -47.9690   -5.5050  -28.6570 O   0  0  0  0  0  0  0  0  0  0  0  0
  -46.4190   -4.0030  -27.4530 O   0  0  0  0  0  0  0  0  0  0  0  0
  -46.9010   -8.2140  -27.9510 O   0  0  0  0  0  0  0  0  0  0  0  0
  -46.9100   -5.3260  -27.7080 S   0  0  2  0  0  0  0  0  0  0  0  0
  2  1  2  0
  3  2  1  0
  4  3  2  0
  5  4  1  0
  6  5  2  0
  6  1  1  0
  7  8  1  6
  9  7  1  0
 13  7  1  0
 13  6  1  0
 14 11  2  0
 14  1  1  0
 14 10  1  1
 14 12  2  0
M  END
>  <id>  (78) 
78

>  <inchikey>  (78) 
XDODAVQVIOWLPT-UHFFFAOYSA-N

>  <alias>  (78) 
m0744a

>  <smiles>  (78) 
NS(=O)(=O)c1ccccc1OC(F)F

>  <path>  (78) 
/opt/xchem-fragalysis-2/maxwin/BulkDock/TARGETS/TRIM21/aligned_files/m0744a/m0744a.pdb

>  <distance_score>  (78) 
None

>  <energy_score>  (78) 
None

>  <compound>  (78) 
XDODAVQVIOWLPT-UHFFFAOYSA-N

>  <compound_id>  (78) 
73

>  <target>  (78) 
TRIM21

>  <tags>  (78) 
['Main status', 'GOOD count', 'hits', 'BAD count', '[Other] upload_1 2025-03-17', 'MEDIOCRE count', 'iter1_hits']

>  <inspirations>  (78) 
None

>  <subsites>  (78) 
None

>  <reference>  (78) 


>  <observation_longname>  (78) 
TRIM21-x0744_B_302_v1

>  <ConformerSites alias>  (78) 
1a - m0031/B/401

>  <CanonSites alias>  (78) 
1 - m0031/B/401/1

>  <CrystalformSites alias>  (78) 
F1c - m0611/B/301

>  <Quatassemblies alias>  (78) 
A1 - monomer

>  <Crystalforms alias>  (78) 
F1 - xtalform1

>  <ConformerSites upload name>  (78) 
1a - TRIM21-x0031/B/401

>  <CanonSites upload name>  (78) 
1 - TRIM21-x0031/B/401/1

>  <CrystalformSites upload name>  (78) 
F1c - TRIM21-x0611/B/301/1

>  <Quatassemblies upload name>  (78) 
A1 - monomer

>  <Crystalforms upload name>  (78) 
F1 - xtalform1

>  <ConformerSites short tag>  (78) 
1a - m0031/B/401

>  <CanonSites short tag>  (78) 
1 - m0031/B/401/1

>  <CrystalformSites short tag>  (78) 
F1c - m0611/B/301

>  <Quatassemblies short tag>  (78) 
A1 - monomer

>  <Crystalforms short tag>  (78) 
F1 - xtalform1

>  <Centroid res>  (78) 
TRIM21-x0031/B/39/B_v1

>  <Experiment code>  (78) 
TRIM21-x0744

>  <Pose>  (78) 
m0744a

>  <exports>  (78) 
/opt/xchem-fragalysis-2/maxwin/TRIM21_FFF/knitwork/iter1/iter1_hits.sdf

$$$$
m0746a
     RDKit          3D

 12 13  0  0  0  0  0  0  0  0999 V2000
  -26.1080  -27.5600  -22.9900 C   0  0  0  0  0  0  0  0  0  0  0  0
  -25.5840  -26.3790  -20.8940 C   0  0  0  0  0  0  0  0  0  0  0  0
  -25.7030  -26.7910  -19.4400 C   0  0  0  0  0  0  0  0  0  0  0  0
  -25.8370  -28.2870  -19.4630 C   0  0  0  0  0  0  0  0  0  0  0  0
  -26.6190  -28.5710  -20.7270 C   0  0  0  0  0  0  0  0  0  0  0  0
  -26.9280  -28.5180  -23.7410 C   0  0  0  0  0  0  0  0  0  0  0  0
  -27.2660  -29.8540  -23.4890 C   0  0  0  0  0  0  0  0  0  0  0  0
  -27.5100  -28.2320  -24.9650 C   0  0  0  0  0  0  0  0  0  0  0  0
  -26.1390  -27.5220  -21.6440 N   0  0  0  0  0  0  0  0  0  0  0  0
  -28.0170  -30.3310  -24.4630 N   0  0  0  0  0  0  0  0  0  0  0  0
  -28.1620  -29.3220  -25.3540 N   0  0  0  0  0  0  0  0  0  0  0  0
  -25.4220  -26.7610  -23.6180 O   0  0  0  0  0  0  0  0  0  0  0  0
  3  2  1  0
  4  3  1  0
  5  4  1  0
  6  1  1  0
  7  6  1  0
  8  6  2  0
  9  1  1  0
  9  5  1  0
  9  2  1  0
 10  7  2  0
 11 10  1  0
 11  8  1  0
 12  1  2  0
M  END
>  <id>  (79) 
79

>  <inchikey>  (79) 
ZCTYYKNBCKBIMR-UHFFFAOYSA-N

>  <alias>  (79) 
m0746a

>  <smiles>  (79) 
O=C(c1cn[nH]c1)N1CCCC1

>  <path>  (79) 
/opt/xchem-fragalysis-2/maxwin/BulkDock/TARGETS/TRIM21/aligned_files/m0746a/m0746a.pdb

>  <distance_score>  (79) 
None

>  <energy_score>  (79) 
None

>  <compound>  (79) 
ZCTYYKNBCKBIMR-UHFFFAOYSA-N

>  <compound_id>  (79) 
74

>  <target>  (79) 
TRIM21

>  <tags>  (79) 
['Main status', 'GOOD count', 'hits', 'BAD count', '[Other] upload_1 2025-03-17', 'MEDIOCRE count', 'iter1_hits']

>  <inspirations>  (79) 
None

>  <subsites>  (79) 
None

>  <reference>  (79) 


>  <observation_longname>  (79) 
TRIM21-x0746_B_302_v1

>  <ConformerSites alias>  (79) 
3a - m0176/B/302

>  <CanonSites alias>  (79) 
3 - m0176/B/302/1

>  <CrystalformSites alias>  (79) 
F1e - m0176/B/302

>  <Quatassemblies alias>  (79) 
A1 - monomer

>  <Crystalforms alias>  (79) 
F1 - xtalform1

>  <ConformerSites upload name>  (79) 
3a - TRIM21-x0176/B/302

>  <CanonSites upload name>  (79) 
3 - TRIM21-x0176/B/302/1

>  <CrystalformSites upload name>  (79) 
F1e - TRIM21-x0176/B/302/1

>  <Quatassemblies upload name>  (79) 
A1 - monomer

>  <Crystalforms upload name>  (79) 
F1 - xtalform1

>  <ConformerSites short tag>  (79) 
3a - m0176/B/302

>  <CanonSites short tag>  (79) 
3 - m0176/B/302/1

>  <CrystalformSites short tag>  (79) 
F1e - m0176/B/302

>  <Quatassemblies short tag>  (79) 
A1 - monomer

>  <Crystalforms short tag>  (79) 
F1 - xtalform1

>  <Centroid res>  (79) 
TRIM21-x0176/B/101/B_v1

>  <Experiment code>  (79) 
TRIM21-x0746

>  <Pose>  (79) 
m0746a

>  <exports>  (79) 
/opt/xchem-fragalysis-2/maxwin/TRIM21_FFF/knitwork/iter1/iter1_hits.sdf

$$$$
m0770a
     RDKit          3D

 15 16  0  0  0  0  0  0  0  0999 V2000
  -45.1860   -3.3990  -23.9300 C   0  0  0  0  0  0  0  0  0  0  0  0
  -47.3360   -4.0010  -25.7250 C   0  0  0  0  0  0  0  0  0  0  0  0
  -47.5740   -3.6630  -24.2920 C   0  0  0  0  0  0  0  0  0  0  0  0
  -44.9260   -3.7420  -25.3650 C   0  0  0  0  0  0  0  0  0  0  0  0
  -45.8000   -4.6390  -27.4670 C   0  0  0  0  0  0  0  0  0  0  0  0
  -44.8650   -5.7360  -27.9140 C   0  0  0  0  0  0  0  0  0  0  0  0
  -45.3340   -7.0210  -28.1300 C   0  0  0  0  0  0  0  0  0  0  0  0
  -44.4730   -8.0300  -28.5390 C   0  0  0  0  0  0  0  0  0  0  0  0
  -43.1390   -7.7570  -28.7440 C   0  0  0  0  0  0  0  0  0  0  0  0
  -42.6600   -6.4830  -28.5380 C   0  0  0  0  0  0  0  0  0  0  0  0
  -43.5220   -5.4740  -28.1370 C   0  0  0  0  0  0  0  0  0  0  0  0
  -45.9930   -4.5450  -26.0040 N   0  0  0  0  0  0  0  0  0  0  0  0
  -46.4980   -3.1970  -23.5740 N   0  0  0  0  0  0  0  0  0  0  0  0
  -44.2750   -3.3010  -23.1260 O   0  0  0  0  0  0  0  0  0  0  0  0
  -48.6840   -3.7780  -23.8080 O   0  0  0  0  0  0  0  0  0  0  0  0
  3  2  1  0
  4  1  1  0
  6  5  1  0
  7  6  2  0
  8  7  1  0
  9  8  2  0
 10  9  1  0
 11  6  1  0
 11 10  2  0
 12  5  1  0
 12  4  1  0
 12  2  1  0
 13  3  1  0
 13  1  1  0
 14  1  2  0
 15  3  2  0
M  END
>  <id>  (80) 
80

>  <inchikey>  (80) 
VURIYIYAKMLWMZ-UHFFFAOYSA-N

>  <alias>  (80) 
m0770a

>  <smiles>  (80) 
O=C1CN(Cc2ccccc2)CC(=O)N1

>  <path>  (80) 
/opt/xchem-fragalysis-2/maxwin/BulkDock/TARGETS/TRIM21/aligned_files/m0770a/m0770a.pdb

>  <distance_score>  (80) 
None

>  <energy_score>  (80) 
None

>  <compound>  (80) 
VURIYIYAKMLWMZ-UHFFFAOYSA-N

>  <compound_id>  (80) 
75

>  <target>  (80) 
TRIM21

>  <tags>  (80) 
['Main status', 'GOOD count', 'hits', 'BAD count', '[Other] upload_1 2025-03-17', 'MEDIOCRE count', 'iter1_hits']

>  <inspirations>  (80) 
None

>  <subsites>  (80) 
None

>  <reference>  (80) 


>  <observation_longname>  (80) 
TRIM21-x0770_B_302_v1

>  <ConformerSites alias>  (80) 
1a - m0031/B/401

>  <CanonSites alias>  (80) 
1 - m0031/B/401/1

>  <CrystalformSites alias>  (80) 
F1c - m0611/B/301

>  <Quatassemblies alias>  (80) 
A1 - monomer

>  <Crystalforms alias>  (80) 
F1 - xtalform1

>  <ConformerSites upload name>  (80) 
1a - TRIM21-x0031/B/401

>  <CanonSites upload name>  (80) 
1 - TRIM21-x0031/B/401/1

>  <CrystalformSites upload name>  (80) 
F1c - TRIM21-x0611/B/301/1

>  <Quatassemblies upload name>  (80) 
A1 - monomer

>  <Crystalforms upload name>  (80) 
F1 - xtalform1

>  <ConformerSites short tag>  (80) 
1a - m0031/B/401

>  <CanonSites short tag>  (80) 
1 - m0031/B/401/1

>  <CrystalformSites short tag>  (80) 
F1c - m0611/B/301

>  <Quatassemblies short tag>  (80) 
A1 - monomer

>  <Crystalforms short tag>  (80) 
F1 - xtalform1

>  <Centroid res>  (80) 
TRIM21-x0031/B/39/B_v1

>  <Experiment code>  (80) 
TRIM21-x0770

>  <Pose>  (80) 
m0770a

>  <exports>  (80) 
/opt/xchem-fragalysis-2/maxwin/TRIM21_FFF/knitwork/iter1/iter1_hits.sdf

$$$$
m0780a
     RDKit          3D

 11 11  0  0  0  0  0  0  0  0999 V2000
  -25.5820  -26.4440  -20.2440 C   0  0  0  0  0  0  0  0  0  0  0  0
  -25.4610  -27.8040  -20.8430 C   0  0  0  0  0  0  0  0  0  0  0  0
  -26.0760  -27.8990  -22.2240 C   0  0  0  0  0  0  0  0  0  0  0  0
  -27.8390  -29.0200  -23.4970 C   0  0  0  0  0  0  0  0  0  0  0  0
  -29.2880  -30.0720  -24.7860 C   0  0  0  0  0  0  0  0  0  0  0  0
  -30.2100  -31.2270  -25.0200 C   0  0  0  0  0  0  0  0  0  0  0  0
  -28.7020  -29.3160  -25.7230 C   0  0  0  0  0  0  0  0  0  0  0  0
  -27.0880  -28.8110  -22.3510 N   0  0  0  0  0  0  0  0  0  0  0  0
  -28.9410  -29.7230  -23.4830 N   0  0  0  0  0  0  0  0  0  0  0  0
  -25.6770  -27.2220  -23.1720 O   0  0  0  0  0  0  0  0  0  0  0  0
  -27.4160  -28.3850  -25.0500 S   0  0  0  0  0  0  0  0  0  0  0  0
  2  1  1  0
  3  2  1  0
  6  5  1  0
  7  5  2  0
  8  4  1  0
  8  3  1  0
  9  5  1  0
  9  4  2  0
 10  3  2  0
 11  7  1  0
 11  4  1  0
M  END
>  <id>  (81) 
81

>  <inchikey>  (81) 
AIOZNYOAFODHNA-UHFFFAOYSA-N

>  <alias>  (81) 
m0780a

>  <smiles>  (81) 
CCC(=O)Nc1nc(C)cs1

>  <path>  (81) 
/opt/xchem-fragalysis-2/maxwin/BulkDock/TARGETS/TRIM21/aligned_files/m0780a/m0780a.pdb

>  <distance_score>  (81) 
None

>  <energy_score>  (81) 
None

>  <compound>  (81) 
AIOZNYOAFODHNA-UHFFFAOYSA-N

>  <compound_id>  (81) 
76

>  <target>  (81) 
TRIM21

>  <tags>  (81) 
['Main status', 'GOOD count', 'hits', 'BAD count', '[Other] upload_1 2025-03-17', 'MEDIOCRE count', 'iter1_hits']

>  <inspirations>  (81) 
None

>  <subsites>  (81) 
None

>  <reference>  (81) 


>  <observation_longname>  (81) 
TRIM21-x0780_B_302_v1

>  <ConformerSites alias>  (81) 
3a - m0176/B/302

>  <CanonSites alias>  (81) 
3 - m0176/B/302/1

>  <CrystalformSites alias>  (81) 
F1e - m0176/B/302

>  <Quatassemblies alias>  (81) 
A1 - monomer

>  <Crystalforms alias>  (81) 
F1 - xtalform1

>  <ConformerSites upload name>  (81) 
3a - TRIM21-x0176/B/302

>  <CanonSites upload name>  (81) 
3 - TRIM21-x0176/B/302/1

>  <CrystalformSites upload name>  (81) 
F1e - TRIM21-x0176/B/302/1

>  <Quatassemblies upload name>  (81) 
A1 - monomer

>  <Crystalforms upload name>  (81) 
F1 - xtalform1

>  <ConformerSites short tag>  (81) 
3a - m0176/B/302

>  <CanonSites short tag>  (81) 
3 - m0176/B/302/1

>  <CrystalformSites short tag>  (81) 
F1e - m0176/B/302

>  <Quatassemblies short tag>  (81) 
A1 - monomer

>  <Crystalforms short tag>  (81) 
F1 - xtalform1

>  <Centroid res>  (81) 
TRIM21-x0176/B/101/B_v1

>  <Experiment code>  (81) 
TRIM21-x0780

>  <Pose>  (81) 
m0780a

>  <exports>  (81) 
/opt/xchem-fragalysis-2/maxwin/TRIM21_FFF/knitwork/iter1/iter1_hits.sdf

$$$$
m0789a
     RDKit          3D

 12 12  0  0  0  0  0  0  0  0999 V2000
  -46.9020   -4.2880  -25.6450 C   0  0  0  0  0  0  0  0  0  0  0  0
  -46.5650   -4.3530  -27.1190 C   0  0  0  0  0  0  0  0  0  0  0  0
  -46.8840   -5.4490  -29.1640 C   0  0  0  0  0  0  0  0  0  0  0  0
  -45.5950   -6.2390  -29.1200 C   0  0  0  0  0  0  0  0  0  0  0  0
  -45.6290   -7.6170  -29.0170 C   0  0  0  0  0  0  0  0  0  0  0  0
  -44.4550   -8.3520  -28.9740 C   0  0  0  0  0  0  0  0  0  0  0  0
  -43.2370   -7.7190  -29.0280 C   0  0  0  0  0  0  0  0  0  0  0  0
  -43.1870   -6.3440  -29.1150 C   0  0  0  0  0  0  0  0  0  0  0  0
  -44.3600   -5.6070  -29.1580 C   0  0  0  0  0  0  0  0  0  0  0  0
  -46.2500   -3.4380  -24.9550 O   0  0  0  0  0  0  0  0  0  0  0  0
  -47.8140   -5.0470  -25.2170 O   0  0  0  0  0  0  0  0  0  0  0  0
  -47.3810   -5.2550  -27.8440 O   0  0  0  0  0  0  0  0  0  0  0  0
  2  1  1  0
  4  3  1  0
  5  4  2  0
  6  5  1  0
  7  6  2  0
  8  7  1  0
  9  4  1  0
  9  8  2  0
 10  1  2  0
 11  1  1  0
 12  3  1  0
 12  2  1  0
M  CHG  1  11  -1
M  END
>  <id>  (82) 
82

>  <inchikey>  (82) 
GRZHHTYDZVRPIC-UHFFFAOYSA-M

>  <alias>  (82) 
m0789a

>  <smiles>  (82) 
O=C([O-])COCc1ccccc1

>  <path>  (82) 
/opt/xchem-fragalysis-2/maxwin/BulkDock/TARGETS/TRIM21/aligned_files/m0789a/m0789a.pdb

>  <distance_score>  (82) 
None

>  <energy_score>  (82) 
None

>  <compound>  (82) 
GRZHHTYDZVRPIC-UHFFFAOYSA-M

>  <compound_id>  (82) 
77

>  <target>  (82) 
TRIM21

>  <tags>  (82) 
['Main status', 'GOOD count', 'hits', 'BAD count', '[Other] upload_1 2025-03-17', 'MEDIOCRE count', 'iter1_hits']

>  <inspirations>  (82) 
None

>  <subsites>  (82) 
None

>  <reference>  (82) 


>  <observation_longname>  (82) 
TRIM21-x0789_B_302_v1

>  <ConformerSites alias>  (82) 
1a - m0031/B/401

>  <CanonSites alias>  (82) 
1 - m0031/B/401/1

>  <CrystalformSites alias>  (82) 
F1b - m0140/B/402

>  <Quatassemblies alias>  (82) 
A1 - monomer

>  <Crystalforms alias>  (82) 
F1 - xtalform1

>  <ConformerSites upload name>  (82) 
1a - TRIM21-x0031/B/401

>  <CanonSites upload name>  (82) 
1 - TRIM21-x0031/B/401/1

>  <CrystalformSites upload name>  (82) 
F1b - TRIM21-x0140/B/402/1

>  <Quatassemblies upload name>  (82) 
A1 - monomer

>  <Crystalforms upload name>  (82) 
F1 - xtalform1

>  <ConformerSites short tag>  (82) 
1a - m0031/B/401

>  <CanonSites short tag>  (82) 
1 - m0031/B/401/1

>  <CrystalformSites short tag>  (82) 
F1b - m0140/B/402

>  <Quatassemblies short tag>  (82) 
A1 - monomer

>  <Crystalforms short tag>  (82) 
F1 - xtalform1

>  <Centroid res>  (82) 
TRIM21-x0031/B/39/B_v1

>  <Experiment code>  (82) 
TRIM21-x0789

>  <Pose>  (82) 
m0789a

>  <exports>  (82) 
/opt/xchem-fragalysis-2/maxwin/TRIM21_FFF/knitwork/iter1/iter1_hits.sdf

$$$$
m0790a
     RDKit          3D

 11 11  0  0  0  0  0  0  0  0999 V2000
  -48.1440   -5.8850  -29.6760 C   0  0  0  0  0  0  0  0  0  0  0  0
  -48.2030   -6.6660  -28.4090 C   0  0  0  0  0  0  0  0  0  0  0  0
  -47.0190   -6.4080  -27.4770 C   0  0  1  0  0  0  0  0  0  0  0  0
  -46.5520   -4.9060  -25.5790 C   0  0  0  0  0  0  0  0  0  0  0  0
  -45.6860   -6.6140  -28.1850 C   0  0  0  0  0  0  0  0  0  0  0  0
  -44.8450   -5.5570  -28.4920 C   0  0  0  0  0  0  0  0  0  0  0  0
  -43.6450   -5.8180  -29.1210 C   0  0  0  0  0  0  0  0  0  0  0  0
  -44.0530   -8.0570  -29.1610 C   0  0  0  0  0  0  0  0  0  0  0  0
  -45.2650   -7.8920  -28.5260 C   0  0  0  0  0  0  0  0  0  0  0  0
  -47.2020   -5.0720  -26.8770 N   0  0  0  0  0  0  0  0  0  0  0  0
  -43.2430   -7.0410  -29.4680 N   0  0  0  0  0  0  0  0  0  0  0  0
  2  1  1  0
  3  2  1  6
  5  3  1  0
  6  5  2  0
  7  6  1  0
  9  8  2  0
  9  5  1  0
 10  3  1  0
 10  4  1  0
 11  8  1  0
 11  7  2  0
M  END
>  <id>  (83) 
83

>  <inchikey>  (83) 
LOFCJGPTBIGJGR-VIFPVBQESA-N

>  <alias>  (83) 
m0790a

>  <smiles>  (83) 
CC[C@H](NC)c1ccncc1

>  <path>  (83) 
/opt/xchem-fragalysis-2/maxwin/BulkDock/TARGETS/TRIM21/aligned_files/m0790a/m0790a.pdb

>  <distance_score>  (83) 
None

>  <energy_score>  (83) 
None

>  <compound>  (83) 
LOFCJGPTBIGJGR-UHFFFAOYSA-N

>  <compound_id>  (83) 
78

>  <target>  (83) 
TRIM21

>  <tags>  (83) 
['Main status', 'GOOD count', 'hits', 'BAD count', '[Other] upload_1 2025-03-17', 'MEDIOCRE count', 'iter1_hits']

>  <inspirations>  (83) 
None

>  <subsites>  (83) 
None

>  <reference>  (83) 


>  <observation_longname>  (83) 
TRIM21-x0790_B_302_v1

>  <ConformerSites alias>  (83) 
1a - m0031/B/401

>  <CanonSites alias>  (83) 
1 - m0031/B/401/1

>  <CrystalformSites alias>  (83) 
F1b - m0140/B/402

>  <Quatassemblies alias>  (83) 
A1 - monomer

>  <Crystalforms alias>  (83) 
F1 - xtalform1

>  <ConformerSites upload name>  (83) 
1a - TRIM21-x0031/B/401

>  <CanonSites upload name>  (83) 
1 - TRIM21-x0031/B/401/1

>  <CrystalformSites upload name>  (83) 
F1b - TRIM21-x0140/B/402/1

>  <Quatassemblies upload name>  (83) 
A1 - monomer

>  <Crystalforms upload name>  (83) 
F1 - xtalform1

>  <ConformerSites short tag>  (83) 
1a - m0031/B/401

>  <CanonSites short tag>  (83) 
1 - m0031/B/401/1

>  <CrystalformSites short tag>  (83) 
F1b - m0140/B/402

>  <Quatassemblies short tag>  (83) 
A1 - monomer

>  <Crystalforms short tag>  (83) 
F1 - xtalform1

>  <Centroid res>  (83) 
TRIM21-x0031/B/39/B_v1

>  <Experiment code>  (83) 
TRIM21-x0790

>  <Pose>  (83) 
m0790a

>  <exports>  (83) 
/opt/xchem-fragalysis-2/maxwin/TRIM21_FFF/knitwork/iter1/iter1_hits.sdf

$$$$
