TRIM21-x0248_B_201_1_TRIM21-x0031+B+401+1__LIG
     RDKit          3D

 18 19  0  0  0  0  0  0  0  0999 V2000
  -45.1550   -9.0520  -26.2270 C   0  0  0  0  0  0  0  0  0  0  0  0
  -44.3970   -7.7540  -26.0990 C   0  0  0  0  0  0  0  0  0  0  0  0
  -43.4590   -7.3760  -27.0430 C   0  0  0  0  0  0  0  0  0  0  0  0
  -42.7680   -6.1820  -26.9380 C   0  0  0  0  0  0  0  0  0  0  0  0
  -43.0140   -5.3290  -25.8780 C   0  0  0  0  0  0  0  0  0  0  0  0
  -43.9530   -5.6700  -24.9160 C   0  0  0  0  0  0  0  0  0  0  0  0
  -44.6380   -6.8840  -25.0410 C   0  0  0  0  0  0  0  0  0  0  0  0
  -44.2060   -4.7680  -23.7410 C   0  0  0  0  0  0  0  0  0  0  0  0
  -43.6750   -5.0530  -22.6760 O   0  0  0  0  0  0  0  0  0  0  0  0
  -44.9580   -3.6650  -23.8770 N   0  0  0  0  0  0  0  0  0  0  0  0
  -45.5680   -3.2380  -25.1410 C   0  0  0  0  0  0  0  0  0  0  0  0
  -47.0340   -2.9210  -24.9520 C   0  0  0  0  0  0  0  0  0  0  0  0
  -47.2020   -1.8370  -23.8890 C   0  0  0  0  0  0  0  0  0  0  0  0
  -46.6130   -2.3630  -22.5800 C   0  0  0  0  0  0  0  0  0  0  0  0
  -45.1540   -2.7310  -22.7620 C   0  0  0  0  0  0  0  0  0  0  0  0
  -48.6550   -1.3980  -23.7480 C   0  0  0  0  0  0  0  0  0  0  0  0
  -49.1990   -0.7250  -24.6340 O   0  0  0  0  0  0  0  0  0  0  0  0
  -49.2930   -1.7400  -22.6310 N   0  0  0  0  0  0  0  0  0  0  0  0
  1  2  1  0
  2  3  2  0
  3  4  1  0
  4  5  2  0
  5  6  1  0
  6  7  2  0
  6  8  1  0
  8  9  2  0
  8 10  1  0
 10 11  1  0
 11 12  1  0
 12 13  1  0
 13 14  1  0
 14 15  1  0
 13 16  1  0
 16 17  2  0
 16 18  1  0
  2  7  1  0
 10 15  1  0
M  END
$$$$
