TRIM21-x0332_B_302_1_TRIM21-x0031+B+401+1__LIG
     RDKit          3D

 15 16  0  0  0  0  0  0  0  0999 V2000
  -47.0810   -4.5170  -26.2380 C   0  0  0  0  0  0  0  0  0  0  0  0
  -47.3870   -4.7590  -27.6800 C   0  0  0  0  0  0  0  0  0  0  0  0
  -47.0300   -6.1170  -27.9770 O   0  0  0  0  0  0  0  0  0  0  0  0
  -45.7570   -6.4510  -28.3460 C   0  0  0  0  0  0  0  0  0  0  0  0
  -44.7310   -5.5490  -28.5880 C   0  0  0  0  0  0  0  0  0  0  0  0
  -43.4880   -5.9990  -28.9820 C   0  0  0  0  0  0  0  0  0  0  0  0
  -43.2350   -7.3460  -29.1410 C   0  0  0  0  0  0  0  0  0  0  0  0
  -44.2530   -8.2680  -28.9160 C   0  0  0  0  0  0  0  0  0  0  0  0
  -45.5200   -7.8310  -28.5330 C   0  0  0  0  0  0  0  0  0  0  0  0
  -46.5180   -8.7780  -28.2530 N   0  0  0  0  0  0  0  0  0  0  0  0
  -46.6060  -10.0100  -29.0470 C   0  0  0  0  0  0  0  0  0  0  0  0
  -48.0020  -10.5940  -29.0160 C   0  0  0  0  0  0  0  0  0  0  0  0
  -48.4010  -10.8440  -27.6340 N   0  0  0  0  0  0  0  0  0  0  0  0
  -48.4840   -9.5710  -26.9130 C   0  0  0  0  0  0  0  0  0  0  0  0
  -47.1670   -8.8100  -26.9350 C   0  0  0  0  0  0  0  0  0  0  0  0
  1  2  1  0
  2  3  1  0
  3  4  1  0
  4  5  2  0
  5  6  1  0
  6  7  2  0
  7  8  1  0
  8  9  2  0
  9 10  1  0
 10 11  1  0
 11 12  1  0
 12 13  1  0
 13 14  1  0
 14 15  1  0
  4  9  1  0
 10 15  1  0
M  END
$$$$
