TRIM21-x0611_B_301_1_TRIM21-x0031+B+401+1__LIG
     RDKit          3D

 14 15  0  0  0  0  0  0  0  0999 V2000
  -41.6180    1.7390  -22.6170 C   0  0  0  0  0  0  0  0  0  0  0  0
  -42.9550    1.6690  -22.1510 O   0  0  0  0  0  0  0  0  0  0  0  0
  -43.9850    1.3100  -23.0330 C   0  0  0  0  0  0  0  0  0  0  0  0
  -43.9170   -0.0600  -23.7270 C   0  0  0  0  0  0  0  0  0  0  0  0
  -45.2860   -0.3280  -23.2100 N   0  0  0  0  0  0  0  0  0  0  0  0
  -45.2250    0.8230  -22.2770 C   0  0  0  0  0  0  0  0  0  0  0  0
  -45.8120   -1.8020  -22.7730 S   0  0  0  0  0  0  0  0  0  0  0  0
  -46.8510   -1.5960  -21.8320 O   0  0  0  0  0  0  0  0  0  0  0  0
  -44.6500   -2.5420  -22.4070 O   0  0  0  0  0  0  0  0  0  0  0  0
  -46.4660   -2.6220  -24.0080 N   0  0  0  0  0  0  0  0  0  0  0  0
  -47.4470   -1.9820  -24.8990 C   0  0  0  0  0  0  0  0  0  0  0  0
  -47.6860   -3.0360  -25.9090 C   0  0  0  0  0  0  0  0  0  0  0  0
  -46.3740   -3.7650  -26.0560 C   0  0  0  0  0  0  0  0  0  0  0  0
  -45.6620   -3.6110  -24.7500 C   0  0  0  0  0  0  0  0  0  0  0  0
  1  2  1  0
  2  3  1  0
  3  4  1  0
  4  5  1  0
  5  6  1  0
  5  7  1  0
  7  8  2  0
  7  9  2  0
  7 10  1  0
 10 11  1  0
 11 12  1  0
 12 13  1  0
 13 14  1  0
  3  6  1  0
 10 14  1  0
M  END
$$$$
