TRIM21-x0199_B_401_1_TRIM21-x0031+B+401+1__LIG
     RDKit          3D

 13 14  0  0  0  0  0  0  0  0999 V2000
  -47.3940   -7.3900  -27.4960 O   0  0  0  0  0  0  0  0  0  0  0  0
  -46.6170   -6.4630  -27.7230 C   0  0  0  0  0  0  0  0  0  0  0  0
  -45.7170   -6.5050  -28.7130 N   0  0  0  0  0  0  0  0  0  0  0  0
  -44.7750   -5.4290  -29.0380 C   0  0  0  0  0  0  0  0  0  0  0  0
  -43.3810   -5.9970  -29.1210 C   0  0  0  0  0  0  0  0  0  0  0  0
  -43.3250   -7.0860  -30.0400 O   0  0  0  0  0  0  0  0  0  0  0  0
  -44.1710   -8.1470  -29.6120 C   0  0  0  0  0  0  0  0  0  0  0  0
  -45.6050   -7.6910  -29.5680 C   0  0  0  0  0  0  0  0  0  0  0  0
  -46.5930   -5.2740  -26.8530 C   0  0  0  0  0  0  0  0  0  0  0  0
  -47.5890   -4.3600  -26.7450 C   0  0  0  0  0  0  0  0  0  0  0  0
  -47.2250   -3.3400  -25.4120 S   0  0  0  0  0  0  0  0  0  0  0  0
  -45.8780   -4.2960  -25.0720 N   0  0  0  0  0  0  0  0  0  0  0  0
  -45.5240   -4.9770  -26.0840 N   0  0  0  0  0  0  0  0  0  0  0  0
  1  2  2  0
  2  3  1  0
  3  4  1  0
  4  5  1  0
  5  6  1  0
  6  7  1  0
  7  8  1  0
  2  9  1  0
  9 10  2  0
 10 11  1  0
 11 12  1  0
 12 13  2  0
  3  8  1  0
  9 13  1  0
M  END
$$$$
