TRIM21-x0393_B_302_1_TRIM21-x0043+B+302+1__LIG
     RDKit          3D

 10 10  0  0  0  0  0  0  0  0999 V2000
  -38.8240  -20.4200  -19.5110 C   0  0  0  0  0  0  0  0  0  0  0  0
  -39.1350  -19.0230  -19.2970 N   0  0  0  0  0  0  0  0  0  0  0  0
  -38.7250  -18.0480  -20.1170 C   0  0  0  0  0  0  0  0  0  0  0  0
  -38.2550  -18.3120  -21.2310 O   0  0  0  0  0  0  0  0  0  0  0  0
  -38.9000  -16.6230  -19.6380 C   0  0  2  0  0  0  0  0  0  0  0  0
  -37.6890  -15.7470  -19.8950 C   0  0  0  0  0  0  0  0  0  0  0  0
  -37.9830  -14.3640  -19.4870 N   0  0  0  0  0  0  0  0  0  0  0  0
  -38.3280  -14.3050  -18.0630 C   0  0  0  0  0  0  0  0  0  0  0  0
  -39.4340  -15.2760  -17.7190 C   0  0  0  0  0  0  0  0  0  0  0  0
  -39.1980  -16.5950  -18.2350 O   0  0  0  0  0  0  0  0  0  0  0  0
  1  2  1  0
  2  3  1  0
  3  4  2  0
  5  3  1  1
  5  6  1  0
  6  7  1  0
  7  8  1  0
  8  9  1  0
  9 10  1  0
  5 10  1  0
M  END
$$$$
