TRIM21-x0102_B_203_1_TRIM21-x0102+B+203+1__LIG
     RDKit          3D

 15 16  0  0  0  0  0  0  0  0999 V2000
  -45.1570  -14.2180  -14.6990 C   0  0  0  0  0  0  0  0  0  0  0  0
  -44.4010  -15.4860  -14.4640 C   0  0  0  0  0  0  0  0  0  0  0  0
  -43.4180  -15.5820  -13.5220 C   0  0  0  0  0  0  0  0  0  0  0  0
  -42.7720  -16.8200  -13.3610 C   0  0  0  0  0  0  0  0  0  0  0  0
  -43.0950  -17.8580  -14.1560 N   0  0  0  0  0  0  0  0  0  0  0  0
  -44.0600  -17.6790  -15.0630 C   0  0  0  0  0  0  0  0  0  0  0  0
  -44.4300  -18.8390  -15.9450 C   0  0  0  0  0  0  0  0  0  0  0  0
  -45.4490  -18.4640  -16.8590 O   0  0  0  0  0  0  0  0  0  0  0  0
  -44.7230  -16.5340  -15.2360 N   0  0  0  0  0  0  0  0  0  0  0  0
  -41.7480  -17.0220  -12.4770 N   0  0  0  0  0  0  0  0  0  0  0  0
  -41.3160  -16.0580  -11.4580 C   0  0  0  0  0  0  0  0  0  0  0  0
  -41.0980  -16.7150  -10.1050 C   0  0  0  0  0  0  0  0  0  0  0  0
  -40.1910  -17.9230  -10.1920 C   0  0  0  0  0  0  0  0  0  0  0  0
  -40.7220  -18.8750  -11.2440 C   0  0  0  0  0  0  0  0  0  0  0  0
  -40.8600  -18.1800  -12.5780 C   0  0  0  0  0  0  0  0  0  0  0  0
  1  2  1  0
  2  3  2  0
  3  4  1  0
  4  5  2  0
  5  6  1  0
  6  7  1  0
  7  8  1  0
  6  9  2  0
  4 10  1  0
 10 11  1  0
 11 12  1  0
 12 13  1  0
 13 14  1  0
 14 15  1  0
  2  9  1  0
 10 15  1  0
M  END
$$$$
