TRIM21-x0358_B_401_1_TRIM21-x0043+B+302+1__LIG
     RDKit          3D

 15 16  0  0  0  0  0  0  0  0999 V2000
  -36.9870  -15.4680  -19.8020 C   0  0  0  0  0  0  0  0  0  0  0  0
  -38.0820  -15.2950  -18.8510 N   0  0  0  0  0  0  0  0  0  0  0  0
  -38.2410  -13.9540  -18.2900 C   0  0  0  0  0  0  0  0  0  0  0  0
  -38.8990  -13.9830  -16.9680 C   0  0  0  0  0  0  0  0  0  0  0  0
  -40.0840  -14.9100  -16.8270 C   0  0  0  0  0  0  0  0  0  0  0  0
  -39.8900  -16.2270  -17.5190 C   0  0  0  0  0  0  0  0  0  0  0  0
  -40.6970  -17.3240  -17.2180 C   0  0  0  0  0  0  0  0  0  0  0  0
  -40.5330  -18.5340  -17.8640 C   0  0  0  0  0  0  0  0  0  0  0  0
  -39.5540  -18.6570  -18.8490 C   0  0  0  0  0  0  0  0  0  0  0  0
  -38.7460  -17.5830  -19.1710 C   0  0  0  0  0  0  0  0  0  0  0  0
  -38.9000  -16.3550  -18.5220 C   0  0  0  0  0  0  0  0  0  0  0  0
  -39.3010  -20.1790  -19.7060 S   0  0  0  0  0  0  0  0  0  0  0  0
  -40.5820  -20.7530  -19.9850 O   0  0  0  0  0  0  0  0  0  0  0  0
  -38.4010  -19.9010  -20.7880 O   0  0  0  0  0  0  0  0  0  0  0  0
  -38.5410  -21.1740  -18.7060 N   0  0  0  0  0  0  0  0  0  0  0  0
  1  2  1  0
  2  3  1  0
  3  4  1  0
  4  5  1  0
  5  6  1  0
  6  7  2  0
  7  8  1  0
  8  9  2  0
  9 10  1  0
 10 11  2  0
  9 12  1  0
 12 13  2  0
 12 14  2  0
 12 15  1  0
  2 11  1  0
  6 11  1  0
M  END
$$$$
