TRIM21-x0604_B_302_1_TRIM21-x0031+B+401+1__LIG
     RDKit          3D

 13 13  0  0  0  0  0  0  0  0999 V2000
  -45.0820   -1.2240  -23.3150 C   0  0  0  0  0  0  0  0  0  0  0  0
  -45.2210   -2.4300  -22.5730 O   0  0  0  0  0  0  0  0  0  0  0  0
  -46.1090   -3.3810  -23.1010 C   0  0  0  0  0  0  0  0  0  0  0  0
  -45.3770   -4.6710  -23.4120 C   0  0  0  0  0  0  0  0  0  0  0  0
  -44.4240   -5.0140  -22.7130 O   0  0  0  0  0  0  0  0  0  0  0  0
  -45.8210   -5.3520  -24.4630 N   0  0  0  0  0  0  0  0  0  0  0  0
  -45.2540   -6.6230  -24.8980 C   0  0  0  0  0  0  0  0  0  0  0  0
  -44.1960   -6.4860  -25.9670 C   0  0  0  0  0  0  0  0  0  0  0  0
  -43.7220   -7.6110  -26.6260 C   0  0  0  0  0  0  0  0  0  0  0  0
  -42.7560   -7.4970  -27.6140 C   0  0  0  0  0  0  0  0  0  0  0  0
  -42.2480   -6.2620  -27.9420 C   0  0  0  0  0  0  0  0  0  0  0  0
  -42.7090   -5.1390  -27.2980 C   0  0  0  0  0  0  0  0  0  0  0  0
  -43.6720   -5.2470  -26.3050 C   0  0  0  0  0  0  0  0  0  0  0  0
  1  2  1  0
  2  3  1  0
  3  4  1  0
  4  5  2  0
  4  6  1  0
  6  7  1  0
  7  8  1  0
  8  9  2  0
  9 10  1  0
 10 11  2  0
 11 12  1  0
 12 13  2  0
  8 13  1  0
M  END
$$$$
