TRIM21-x0468_B_302_1_TRIM21-x0031+B+401+1__LIG
     RDKit          3D

 14 15  0  0  0  0  0  0  0  0999 V2000
  -46.4070   -4.3540  -22.9990 C   0  0  0  0  0  0  0  0  0  0  0  0
  -45.0490   -3.2760  -23.4670 S   0  0  0  0  0  0  0  0  0  0  0  0
  -43.8310   -3.9000  -22.9890 O   0  0  0  0  0  0  0  0  0  0  0  0
  -45.0560   -2.0400  -22.6770 O   0  0  0  0  0  0  0  0  0  0  0  0
  -44.9970   -2.9180  -25.2490 C   0  0  0  0  0  0  0  0  0  0  0  0
  -44.6300   -4.1580  -26.0550 C   0  0  0  0  0  0  0  0  0  0  0  0
  -45.4650   -5.0820  -26.5260 N   0  0  0  0  0  0  0  0  0  0  0  0
  -44.7250   -6.0220  -27.1960 C   0  0  0  0  0  0  0  0  0  0  0  0
  -45.0940   -7.2100  -27.8810 C   0  0  0  0  0  0  0  0  0  0  0  0
  -44.1190   -7.9970  -28.4790 C   0  0  0  0  0  0  0  0  0  0  0  0
  -42.7770   -7.6150  -28.4200 C   0  0  0  0  0  0  0  0  0  0  0  0
  -42.3990   -6.4490  -27.7500 C   0  0  0  0  0  0  0  0  0  0  0  0
  -43.4100   -5.6410  -27.1260 C   0  0  0  0  0  0  0  0  0  0  0  0
  -43.3920   -4.4870  -26.4140 N   0  0  0  0  0  0  0  0  0  0  0  0
  2  1  1  0
  3  2  2  0
  4  2  2  0
  5  2  1  0
  6  5  1  0
  7  6  2  0
  8  7  1  0
  9  8  2  0
 10  9  1  0
 11 10  2  0
 12 11  1  0
 13 12  2  0
 14 13  1  0
  6 14  1  0
  8 13  1  0
M  END
$$$$
