TRIM21-x0145_B_201_1_TRIM21-x0031+B+401+1__LIG
     RDKit          3D

 15 16  0  0  0  0  0  0  0  0999 V2000
  -42.9580   -7.3760  -28.7150 C   0  0  0  0  0  0  0  0  0  0  0  0
  -44.0000   -6.5610  -29.4650 C   0  0  0  0  0  0  0  0  0  0  0  0
  -44.9050   -5.7490  -28.5370 C   0  0  0  0  0  0  0  0  0  0  0  0
  -44.4650   -5.0080  -27.5780 N   0  0  0  0  0  0  0  0  0  0  0  0
  -45.2680   -3.8980  -27.5140 N   0  0  0  0  0  0  0  0  0  0  0  0
  -46.4600   -4.3640  -27.5300 C   0  0  0  0  0  0  0  0  0  0  0  0
  -47.3060   -3.9940  -26.5250 N   0  0  0  0  0  0  0  0  0  0  0  0
  -46.7690   -3.5080  -25.3860 C   0  0  0  0  0  0  0  0  0  0  0  0
  -45.7370   -3.9590  -24.9140 O   0  0  0  0  0  0  0  0  0  0  0  0
  -47.4120   -2.2940  -24.7980 C   0  0  1  0  0  0  0  0  0  0  0  0
  -48.3100   -2.6760  -23.6330 C   0  0  0  0  0  0  0  0  0  0  0  0
  -47.3360   -2.6280  -22.4740 C   0  0  0  0  0  0  0  0  0  0  0  0
  -46.3530   -1.5790  -22.8460 C   0  0  0  0  0  0  0  0  0  0  0  0
  -46.4360   -1.3850  -24.2660 O   0  0  0  0  0  0  0  0  0  0  0  0
  -46.6630   -5.6270  -28.6590 S   0  0  0  0  0  0  0  0  0  0  0  0
  1  2  1  0
  2  3  1  0
  3  4  2  0
  4  5  1  0
  5  6  2  0
  6  7  1  0
  7  8  1  0
  8  9  2  0
 10  8  1  1
 10 11  1  0
 11 12  1  0
 12 13  1  0
 13 14  1  0
  6 15  1  0
  3 15  1  0
 10 14  1  0
M  END
$$$$
