TRIM21-x0469_B_302_1_TRIM21-x0031+B+401+1__LIG
     RDKit          3D

 13 14  0  0  0  0  0  0  0  0999 V2000
  -42.4360   -7.1090  -28.3590 C   0  0  0  0  0  0  0  0  0  0  0  0
  -43.4490   -6.4150  -29.2760 C   0  0  1  0  0  0  0  0  0  0  0  0
  -43.3690   -7.0360  -30.5280 O   0  0  0  0  0  0  0  0  0  0  0  0
  -44.8350   -6.5290  -28.6500 C   0  0  0  0  0  0  0  0  0  0  0  0
  -45.5250   -7.6810  -28.3240 C   0  0  0  0  0  0  0  0  0  0  0  0
  -46.6890   -7.3030  -27.7920 N   0  0  0  0  0  0  0  0  0  0  0  0
  -46.7080   -5.9190  -27.7720 N   0  0  0  0  0  0  0  0  0  0  0  0
  -45.5910   -5.4540  -28.3030 C   0  0  0  0  0  0  0  0  0  0  0  0
  -47.7270   -4.9360  -27.3380 C   0  0  0  0  0  0  0  0  0  0  0  0
  -49.1670   -5.1330  -27.8920 C   0  0  0  0  0  0  0  0  0  0  0  0
  -50.0010   -4.6150  -26.9120 C   0  0  0  0  0  0  0  0  0  0  0  0
  -49.0820   -4.1790  -25.6170 C   0  0  0  0  0  0  0  0  0  0  0  0
  -47.9080   -4.9280  -25.7610 C   0  0  0  0  0  0  0  0  0  0  0  0
  2  1  1  1
  3  2  1  0
  4  2  1  0
  5  4  1  0
  6  5  2  0
  7  6  1  0
  8  7  1  0
  9  7  1  0
 10  9  1  0
 11 10  1  0
 12 11  1  0
 13 12  1  0
  4  8  2  0
  9 13  1  0
M  END
$$$$
