ver_1.2
     RDKit          3D

 15 16  0  0  0  0  0  0  0  0999 V2000
    0.8267   -2.2060   -0.8233 O   0  0  0  0  0  0  0  0  0  0  0  0
    0.8153   -1.0670   -0.2557 C   0  0  0  0  0  0  0  0  0  0  0  0
    2.0685   -0.3569   -0.0665 C   0  0  0  0  0  0  0  0  0  0  0  0
    3.2926   -0.9036   -0.4482 C   0  0  0  0  0  0  0  0  0  0  0  0
    4.2832    0.0085   -0.1377 C   0  0  0  0  0  0  0  0  0  0  0  0
    3.5979    1.0857    0.4286 C   0  0  0  0  0  0  0  0  0  0  0  0
    2.3066    0.8226    0.4469 O   0  0  0  0  0  0  0  0  0  0  0  0
   -0.4507   -0.5330    0.1763 N   0  0  0  0  0  0  0  0  0  0  0  0
   -1.6051   -1.3577   -0.0790 C   0  0  0  0  0  0  0  0  0  0  0  0
   -2.6445   -0.5609   -0.8333 C   0  0  0  0  0  0  0  0  0  0  0  0
   -3.0585    0.7896    0.2805 S   0  0  0  0  0  0  0  0  0  0  0  0
   -3.3545    0.1784    1.6140 O   0  0  0  0  0  0  0  0  0  0  0  0
   -4.1275    1.6623   -0.2367 O   0  0  0  0  0  0  0  0  0  0  0  0
   -1.5169    1.6959    0.4633 C   0  0  0  0  0  0  0  0  0  0  0  0
   -0.4334    0.7419    0.8159 C   0  0  0  0  0  0  0  0  0  0  0  0
  1  2  2  0
  2  3  1  0
  3  4  2  0
  4  5  1  0
  5  6  2  0
  6  7  1  0
  2  8  1  0
  8  9  1  0
  9 10  1  0
 10 11  1  0
 11 12  2  0
 11 13  2  0
 11 14  1  0
 14 15  1  0
  7  3  1  0
 15  8  1  0
M  END
>  <ref_url>  (1) 
https://github.com/mwinokan/BulkDock

>  <submitter_name>  (1) 
Max Winokan

>  <submitter_email>  (1) 
max.winokan@diamond.ac.uk

>  <submitter_institution>  (1) 
DLS

>  <generation_date>  (1) 
2025-03-24

>  <method>  (1) 
iter1_fstein

>  <SLURM_JOB_ID>  (1) 
SLURM_JOB_ID

>  <SLURM_JOB_NAME>  (1) 
SLURM_JOB_NAME

>  <csv_name>  (1) 
csv_name

>  <scratch_subdir>  (1) 
scratch_subdir

>  <fragmenstein_runtime>  (1) 
fragmenstein_runtime

>  <fragmenstein_outcome>  (1) 
fragmenstein_outcome

>  <fragmenstein_mode>  (1) 
fragmenstein_mode

>  <fragmenstein_error>  (1) 
fragmenstein_error

>  <exports>  (1) 
exports

>  <score_inspiration>  (1) 
score_inspiration

>  <HIPPO Pose ID>  (1) 
HIPPO Pose ID

>  <HIPPO Compound ID>  (1) 
HIPPO Compound ID

>  <smiles>  (1) 
smiles

>  <ref_pdb>  (1) 
protein reference

>  <ref_mols>  (1) 
fragment inspirations

>  <original ID>  (1) 
original ID

>  <compound inchikey>  (1) 
compound inchikey

>  <distance_score>  (1) 
distance_score

>  <energy_score>  (1) 
energy_score

>  <subsites>  (1) 
subsites

$$$$
84
     RDKit          3D

 15 16  0  0  0  0  0  0  0  0999 V2000
  -47.1301   -5.0983  -27.7249 O   0  0  0  0  0  0  0  0  0  0  0  0
  -46.0569   -5.2699  -27.1555 C   0  0  0  0  0  0  0  0  0  0  0  0
  -44.9477   -6.0529  -27.6618 C   0  0  0  0  0  0  0  0  0  0  0  0
  -43.6125   -5.7448  -27.8652 C   0  0  0  0  0  0  0  0  0  0  0  0
  -42.9764   -6.9359  -28.2814 C   0  0  0  0  0  0  0  0  0  0  0  0
  -43.9635   -7.8883  -28.3454 C   0  0  0  0  0  0  0  0  0  0  0  0
  -45.1586   -7.3678  -27.9646 O   0  0  0  0  0  0  0  0  0  0  0  0
  -45.7607   -4.6333  -25.9530 N   0  0  0  0  0  0  0  0  0  0  0  0
  -45.1156   -3.3356  -25.9951 C   0  0  0  0  0  0  0  0  0  0  0  0
  -45.4383   -2.3438  -24.9100 C   0  0  0  0  0  0  0  0  0  0  0  0
  -45.4036   -3.1291  -23.3299 S   0  0  0  0  0  0  0  0  0  0  0  0
  -45.9576   -2.2178  -22.3529 O   0  0  0  0  0  0  0  0  0  0  0  0
  -44.1122   -3.7486  -23.0702 O   0  0  0  0  0  0  0  0  0  0  0  0
  -46.5759   -4.4042  -23.6073 C   0  0  0  0  0  0  0  0  0  0  0  0
  -46.1153   -5.3075  -24.7196 C   0  0  0  0  0  0  0  0  0  0  0  0
  1  2  2  0
  2  3  1  0
  3  4  2  0
  4  5  1  0
  5  6  2  0
  6  7  1  0
  2  8  1  0
  8  9  1  0
  9 10  1  0
 10 11  1  0
 11 12  2  0
 11 13  2  0
 11 14  1  0
 14 15  1  0
  7  3  1  0
 15  8  1  0
M  END
>  <original SMILES>  (1) 
O=C(c1ccco1)N1CCS(=O)(=O)CC1

>  <ref_pdb>  (1) 
m0631a

>  <distance_score>  (1) 
0.838949

>  <fragmenstein_runtime>  (1) 
1.83848

>  <name>  (1) 
BURYTZVEXZFEQY-UHFFFAOYSA-N

>  <scratch_subdir>  (1) 
/opt/xchem-fragalysis-2/maxwin/BulkDock/SCRATCH/352918/C79-P62

>  <ref_mols>  (1) 
m0631a,m0731a

>  <HIPPO Compound ID>  (1) 
79

>  <energy_score>  (1) 
-13.32121

>  <alias>  (1) 
None

>  <original ID>  (1) 
BURYTZVEXZFEQY-UHFFFAOYSA-N

>  <SLURM_JOB_ID>  (1) 
352918

>  <HIPPO Pose ID>  (1) 
84

>  <fragmenstein_mode>  (1) 
expansion

>  <fragmenstein_outcome>  (1) 
acceptable

>  <score_inspiration>  (1) 
0.845015

>  <inchikey>  (1) 
BURYTZVEXZFEQY-UHFFFAOYSA-N

>  <csv_name>  (1) 
TRIM21_iter1_fstein_split1000_batch002.csv

>  <fragmenstein_error>  (1) 
None

>  <subsites>  (1) 
None

>  <tags>  (1) 
Fragmenstein placed

$$$$
86
     RDKit          3D

 22 23  0  0  0  0  0  0  0  0999 V2000
  -44.7853   -6.2214  -30.3849 C   0  0  0  0  0  0  0  0  0  0  0  0
  -44.0954   -6.2656  -29.0267 C   0  0  1  0  0  0  0  0  0  0  0  0
  -44.9918   -6.0689  -27.7859 C   0  0  1  0  0  0  0  0  0  0  0  0
  -45.9135   -4.8467  -27.7450 C   0  0  0  0  0  0  0  0  0  0  0  0
  -46.0428   -4.1733  -26.4222 N   0  0  0  0  0  0  0  0  0  0  0  0
  -44.7683   -3.5332  -26.0606 C   0  0  0  0  0  0  0  0  0  0  0  0
  -44.9241   -2.5056  -24.9593 C   0  0  0  0  0  0  0  0  0  0  0  0
  -45.4310   -3.3311  -23.4809 S   0  0  0  0  0  0  0  0  0  0  0  0
  -45.9017   -2.3351  -22.5400 O   0  0  0  0  0  0  0  0  0  0  0  0
  -44.3737   -4.2393  -23.0543 O   0  0  0  0  0  0  0  0  0  0  0  0
  -46.8256   -4.2544  -24.0696 C   0  0  0  0  0  0  0  0  0  0  0  0
  -46.5074   -5.0440  -25.3319 C   0  0  0  0  0  0  0  0  0  0  0  0
  -45.7408   -7.3891  -27.6879 C   0  0  0  0  0  0  0  0  0  0  0  0
  -44.7153   -8.4590  -28.1028 C   0  0  1  0  0  0  0  0  0  0  0  0
  -45.3395   -9.4516  -28.9918 N   0  0  0  0  0  0  0  0  0  0  0  0
  -46.4141  -10.1458  -28.3590 N   0  0  0  0  0  0  0  0  0  0  0  0
  -47.2646  -11.0663  -29.5431 S   0  0  0  0  0  0  0  0  0  0  0  0
  -48.3652  -11.9723  -28.4816 C   0  0  0  0  0  0  0  0  0  0  0  0
  -48.0445  -10.1196  -30.3122 O   0  0  0  0  0  0  0  0  0  0  0  0
  -46.3667  -12.0108  -30.1667 O   0  0  0  0  0  0  0  0  0  0  0  0
  -43.5441   -7.6774  -28.7666 C   0  0  2  0  0  0  0  0  0  0  0  0
  -42.3343   -7.5859  -27.8381 C   0  0  0  0  0  0  0  0  0  0  0  0
  2  1  1  6
  2  3  1  0
  3  4  1  6
  4  5  1  0
  5  6  1  0
  6  7  1  0
  7  8  1  0
  8  9  2  0
  8 10  2  0
  8 11  1  0
 11 12  1  0
  3 13  1  0
 13 14  1  0
 14 15  1  6
 15 16  1  0
 16 17  1  0
 17 18  1  0
 17 19  2  0
 17 20  2  0
 14 21  1  0
 21 22  1  1
 21  2  1  0
 12  5  1  0
M  END
>  <original SMILES>  (2) 
C[C@@H]1[C@@H](C)[C@@H](CN2CCS(=O)(=O)CC2)C[C@H]1NNS(C)(=O)=O

>  <ref_pdb>  (2) 
m0631a

>  <distance_score>  (2) 
0.999711

>  <fragmenstein_runtime>  (2) 
5.138504

>  <name>  (2) 
SLJDIPRLPUIZPY-FDYHWXHSSA-N

>  <scratch_subdir>  (2) 
/opt/xchem-fragalysis-2/maxwin/BulkDock/SCRATCH/352918/C80-P62

>  <ref_mols>  (2) 
m0631a,m0733a

>  <HIPPO Compound ID>  (2) 
80

>  <energy_score>  (2) 
-58.736384

>  <alias>  (2) 
None

>  <original ID>  (2) 
SLJDIPRLPUIZPY-FDYHWXHSSA-N

>  <SLURM_JOB_ID>  (2) 
352918

>  <HIPPO Pose ID>  (2) 
86

>  <fragmenstein_mode>  (2) 
expansion

>  <fragmenstein_outcome>  (2) 
acceptable

>  <score_inspiration>  (2) 
0.53575

>  <inchikey>  (2) 
SLJDIPRLPUIZPY-FDYHWXHSSA-N

>  <csv_name>  (2) 
TRIM21_iter1_fstein_split1000_batch002.csv

>  <fragmenstein_error>  (2) 
None

>  <subsites>  (2) 
None

>  <tags>  (2) 
Fragmenstein placed

$$$$
327
     RDKit          3D

 20 21  0  0  0  0  0  0  0  0999 V2000
  -43.2705   -7.3662  -28.0561 C   0  0  0  0  0  0  0  0  0  0  0  0
  -43.4188   -6.5408  -29.3234 C   0  0  2  0  0  0  0  0  0  0  0  0
  -44.6475   -5.6097  -29.4414 C   0  0  0  0  0  0  0  0  0  0  0  0
  -46.1204   -6.0553  -29.4478 N   0  0  0  0  0  0  0  0  0  0  0  0
  -46.5013   -6.6986  -28.1384 C   0  0  0  0  0  0  0  0  0  0  0  0
  -46.4532   -7.8219  -27.8015 O   0  0  0  0  0  0  0  0  0  0  0  0
  -47.0488   -5.6065  -27.2737 C   0  0  0  0  0  0  0  0  0  0  0  0
  -47.0778   -5.7379  -25.9416 C   0  0  0  0  0  0  0  0  0  0  0  0
  -47.3640   -4.5848  -25.2392 N   0  0  0  0  0  0  0  0  0  0  0  0
  -46.7437   -4.2635  -23.9643 N   0  0  0  0  0  0  0  0  0  0  0  0
  -45.1151   -3.9615  -23.8354 S   0  0  0  0  0  0  0  0  0  0  0  0
  -44.3600   -5.3989  -24.5690 C   0  0  0  0  0  0  0  0  0  0  0  0
  -44.8236   -2.7808  -24.6143 O   0  0  0  0  0  0  0  0  0  0  0  0
  -44.7579   -4.0007  -22.4324 O   0  0  0  0  0  0  0  0  0  0  0  0
  -47.5674   -3.3625  -26.3686 S   0  0  0  0  0  0  0  0  0  0  0  0
  -47.3883   -4.3375  -27.7348 N   0  0  0  0  0  0  0  0  0  0  0  0
  -45.6530   -6.6813  -30.7733 C   0  0  2  0  0  0  0  0  0  0  0  0
  -46.9624   -7.2610  -31.3680 C   0  0  0  0  0  0  0  0  0  0  0  0
  -44.6603   -7.8628  -30.7401 C   0  0  0  0  0  0  0  0  0  0  0  0
  -43.3536   -7.3672  -30.4737 O   0  0  0  0  0  0  0  0  0  0  0  0
  2  1  1  1
  2  3  1  0
  3  4  1  0
  4  5  1  0
  5  6  2  0
  5  7  1  0
  7  8  2  0
  8  9  1  0
  9 10  1  0
 10 11  1  0
 11 12  1  0
 11 13  2  0
 11 14  2  0
  9 15  1  0
 15 16  1  0
  4 17  1  0
 17 18  1  1
 17 19  1  0
 19 20  1  0
 20  2  1  0
 16  7  1  0
M  END
>  <original SMILES>  (3) 
C[C@@H]1CN(C(=O)C2=CN(NS(C)(=O)=O)SN2)[C@H](C)CO1

>  <ref_pdb>  (3) 
m0306a

>  <distance_score>  (3) 
0.777059

>  <fragmenstein_runtime>  (3) 
1.61585

>  <name>  (3) 
WKOZUHQNGIIPMJ-HTQZYQBOSA-N

>  <scratch_subdir>  (3) 
/opt/xchem-fragalysis-2/maxwin/BulkDock/SCRATCH/352918/C187-P24

>  <ref_mols>  (3) 
m0306a,m0658a

>  <HIPPO Compound ID>  (3) 
187

>  <energy_score>  (3) 
-22.77988

>  <alias>  (3) 
None

>  <original ID>  (3) 
WKOZUHQNGIIPMJ-HTQZYQBOSA-N

>  <SLURM_JOB_ID>  (3) 
352918

>  <HIPPO Pose ID>  (3) 
327

>  <fragmenstein_mode>  (3) 
expansion

>  <fragmenstein_outcome>  (3) 
acceptable

>  <score_inspiration>  (3) 
0.612408

>  <inchikey>  (3) 
WKOZUHQNGIIPMJ-HTQZYQBOSA-N

>  <csv_name>  (3) 
TRIM21_iter1_fstein_split1000_batch002.csv

>  <fragmenstein_error>  (3) 
None

>  <subsites>  (3) 
None

>  <tags>  (3) 
Fragmenstein placed

$$$$
350
     RDKit          3D

 18 20  0  0  0  0  0  0  0  0999 V2000
  -42.0581   -6.9313  -28.1573 C   0  0  0  0  0  0  0  0  0  0  0  0
  -43.4492   -6.7771  -28.7049 C   0  0  0  0  0  0  0  0  0  0  0  0
  -43.8365   -7.6045  -29.8551 C   0  0  0  0  0  0  0  0  0  0  0  0
  -44.9912   -7.3100  -30.4482 C   0  0  0  0  0  0  0  0  0  0  0  0
  -45.8804   -6.2663  -29.8922 C   0  0  0  0  0  0  0  0  0  0  0  0
  -46.8829   -5.9722  -30.5425 O   0  0  0  0  0  0  0  0  0  0  0  0
  -45.5036   -5.7686  -28.6503 N   0  0  0  0  0  0  0  0  0  0  0  0
  -46.4331   -4.9309  -27.9001 C   0  0  2  0  0  0  0  0  0  0  0  0
  -45.8994   -4.2893  -26.5513 C   0  0  0  0  0  0  0  0  0  0  0  0
  -47.1752   -4.1238  -25.6304 C   0  0  2  0  0  0  0  0  0  0  0  0
  -46.8652   -4.3121  -24.3704 O   0  0  0  0  0  0  0  0  0  0  0  0
  -47.9481   -5.2888  -26.1472 C   0  0  0  0  0  0  0  0  0  0  0  0
  -48.9502   -6.0578  -25.6714 N   0  0  0  0  0  0  0  0  0  0  0  0
  -49.3238   -6.9457  -26.6666 C   0  0  0  0  0  0  0  0  0  0  0  0
  -50.4458   -7.8895  -26.4729 C   0  0  0  0  0  0  0  0  0  0  0  0
  -48.4715   -6.7552  -27.7502 C   0  0  0  0  0  0  0  0  0  0  0  0
  -47.5852   -5.7291  -27.3885 C   0  0  0  0  0  0  0  0  0  0  0  0
  -44.2354   -5.9332  -28.1299 N   0  0  0  0  0  0  0  0  0  0  0  0
  1  2  1  0
  2  3  1  0
  3  4  2  0
  4  5  1  0
  5  6  2  0
  5  7  1  0
  8  7  1  1
  8  9  1  0
  9 10  1  0
 10 11  1  1
 10 12  1  0
 12 13  1  0
 13 14  1  0
 14 15  1  0
 14 16  2  0
 16 17  1  0
  7 18  1  0
 18  2  2  0
 17  8  1  0
 17 12  2  0
M  CHG  1  11  -1
M  END
>  <original SMILES>  (4) 
Cc1ccc(=O)n([C@@H]2C[C@H]([O-])c3[nH]c(C)cc32)n1

>  <ref_pdb>  (4) 
m0037a

>  <distance_score>  (4) 
0.706614

>  <fragmenstein_runtime>  (4) 
1.009701

>  <name>  (4) 
QZPQJRBPLFCSFT-MNOVXSKESA-N

>  <scratch_subdir>  (4) 
/opt/xchem-fragalysis-2/maxwin/BulkDock/SCRATCH/352916/C1681-P3

>  <ref_mols>  (4) 
m0037a,m0424a

>  <HIPPO Compound ID>  (4) 
1681

>  <energy_score>  (4) 
-35.587715

>  <alias>  (4) 
None

>  <original ID>  (4) 
QZPQJRBPLFCSFT-MNOVXSKESA-N

>  <SLURM_JOB_ID>  (4) 
352916

>  <HIPPO Pose ID>  (4) 
350

>  <fragmenstein_mode>  (4) 
expansion

>  <fragmenstein_outcome>  (4) 
acceptable

>  <score_inspiration>  (4) 
0.781567

>  <inchikey>  (4) 
QZPQJRBPLFCSFT-MNOVXSKESA-N

>  <csv_name>  (4) 
TRIM21_iter1_fstein_split1000_batch000.csv

>  <fragmenstein_error>  (4) 
None

>  <subsites>  (4) 
None

>  <tags>  (4) 
Fragmenstein placed

$$$$
352
     RDKit          3D

 18 20  0  0  0  0  0  0  0  0999 V2000
  -42.1640   -6.9322  -28.1591 C   0  0  0  0  0  0  0  0  0  0  0  0
  -43.5381   -6.7200  -28.7292 C   0  0  0  0  0  0  0  0  0  0  0  0
  -43.9600   -7.5518  -29.8637 C   0  0  0  0  0  0  0  0  0  0  0  0
  -45.0917   -7.2100  -30.4753 C   0  0  0  0  0  0  0  0  0  0  0  0
  -45.9389   -6.1219  -29.9410 C   0  0  0  0  0  0  0  0  0  0  0  0
  -46.9462   -5.8223  -30.5809 O   0  0  0  0  0  0  0  0  0  0  0  0
  -45.5315   -5.6008  -28.7188 N   0  0  0  0  0  0  0  0  0  0  0  0
  -46.4576   -4.7843  -27.9397 C   0  0  2  0  0  0  0  0  0  0  0  0
  -45.8918   -4.1563  -26.5945 C   0  0  0  0  0  0  0  0  0  0  0  0
  -47.1175   -4.0912  -25.5979 C   0  0  2  0  0  0  0  0  0  0  0  0
  -46.7209   -4.3218  -24.3693 O   0  0  0  0  0  0  0  0  0  0  0  0
  -47.8747   -5.2598  -26.1280 C   0  0  0  0  0  0  0  0  0  0  0  0
  -48.8141   -6.0957  -25.6366 N   0  0  0  0  0  0  0  0  0  0  0  0
  -49.2326   -6.9298  -26.6598 C   0  0  0  0  0  0  0  0  0  0  0  0
  -50.3234   -7.9083  -26.4573 C   0  0  0  0  0  0  0  0  0  0  0  0
  -48.4502   -6.6559  -27.7767 C   0  0  0  0  0  0  0  0  0  0  0  0
  -47.5677   -5.6282  -27.4066 C   0  0  0  0  0  0  0  0  0  0  0  0
  -44.2770   -5.8149  -28.1880 N   0  0  0  0  0  0  0  0  0  0  0  0
  1  2  1  0
  2  3  1  0
  3  4  2  0
  4  5  1  0
  5  6  2  0
  5  7  1  0
  8  7  1  1
  8  9  1  0
  9 10  1  0
 10 11  1  1
 10 12  1  0
 12 13  1  0
 13 14  1  0
 14 15  1  0
 14 16  2  0
 16 17  1  0
  7 18  1  0
 18  2  2  0
 17  8  1  0
 17 12  2  0
M  CHG  1  11  -1
M  END
>  <original SMILES>  (5) 
Cc1ccc(=O)n([C@@H]2C[C@H]([O-])c3[nH]c(C)cc32)n1

>  <ref_pdb>  (5) 
m0424a

>  <distance_score>  (5) 
0.682833

>  <fragmenstein_runtime>  (5) 
1.151405

>  <name>  (5) 
QZPQJRBPLFCSFT-MNOVXSKESA-N

>  <scratch_subdir>  (5) 
/opt/xchem-fragalysis-2/maxwin/BulkDock/SCRATCH/352916/C1681-P37

>  <ref_mols>  (5) 
m0037a,m0424a

>  <HIPPO Compound ID>  (5) 
1681

>  <energy_score>  (5) 
-34.672115

>  <alias>  (5) 
None

>  <original ID>  (5) 
QZPQJRBPLFCSFT-MNOVXSKESA-N

>  <SLURM_JOB_ID>  (5) 
352916

>  <HIPPO Pose ID>  (5) 
352

>  <fragmenstein_mode>  (5) 
expansion

>  <fragmenstein_outcome>  (5) 
acceptable

>  <score_inspiration>  (5) 
0.788274

>  <inchikey>  (5) 
QZPQJRBPLFCSFT-MNOVXSKESA-N

>  <csv_name>  (5) 
TRIM21_iter1_fstein_split1000_batch000.csv

>  <fragmenstein_error>  (5) 
None

>  <subsites>  (5) 
None

>  <tags>  (5) 
Fragmenstein placed

$$$$
382
     RDKit          3D

 19 20  0  0  0  0  0  0  0  0999 V2000
  -42.1530   -6.9483  -28.3468 C   0  0  0  0  0  0  0  0  0  0  0  0
  -43.4591   -7.0727  -29.0989 C   0  0  1  0  0  0  0  0  0  0  0  0
  -44.3990   -5.8958  -28.8024 C   0  0  0  0  0  0  0  0  0  0  0  0
  -45.7798   -6.1695  -29.2854 N   0  0  0  0  0  0  0  0  0  0  0  0
  -46.6096   -6.7195  -28.1998 C   0  0  1  0  0  0  0  0  0  0  0  0
  -47.9093   -6.9849  -28.6861 O   0  0  0  0  0  0  0  0  0  0  0  0
  -45.9974   -7.8516  -27.6142 O   0  0  0  0  0  0  0  0  0  0  0  0
  -46.5017   -9.0918  -28.0197 C   0  0  0  0  0  0  0  0  0  0  0  0
  -45.4948   -9.7509  -28.6446 F   0  0  0  0  0  0  0  0  0  0  0  0
  -46.7689   -9.7899  -26.8855 F   0  0  0  0  0  0  0  0  0  0  0  0
  -46.7899   -5.6436  -27.1045 C   0  0  0  0  0  0  0  0  0  0  0  0
  -46.7366   -5.8764  -25.6881 C   0  0  0  0  0  0  0  0  0  0  0  0
  -46.8792   -4.8017  -24.9108 N   0  0  0  0  0  0  0  0  0  0  0  0
  -47.1358   -3.5443  -25.9756 S   0  0  0  0  0  0  0  0  0  0  0  0
  -47.0853   -4.3718  -27.4260 N   0  0  0  0  0  0  0  0  0  0  0  0
  -45.7246   -7.0023  -30.5223 C   0  0  1  0  0  0  0  0  0  0  0  0
  -46.8684   -6.6530  -31.4772 C   0  0  0  0  0  0  0  0  0  0  0  0
  -44.3787   -6.8505  -31.2859 C   0  0  0  0  0  0  0  0  0  0  0  0
  -43.2175   -7.1643  -30.5047 O   0  0  0  0  0  0  0  0  0  0  0  0
  2  1  1  1
  2  3  1  0
  3  4  1  0
  4  5  1  0
  5  6  1  6
  5  7  1  0
  7  8  1  0
  8  9  1  0
  8 10  1  0
  5 11  1  0
 11 12  1  0
 12 13  2  0
 13 14  1  0
 14 15  1  0
  4 16  1  0
 16 17  1  6
 16 18  1  0
 18 19  1  0
 19  2  1  0
 15 11  2  0
M  END
>  <original SMILES>  (6) 
C[C@H]1CN([C@@](O)(OC(F)F)c2cnsn2)[C@@H](C)CO1

>  <ref_pdb>  (6) 
m0597a

>  <distance_score>  (6) 
0.836724

>  <fragmenstein_runtime>  (6) 
1.916252

>  <name>  (6) 
BNPOGDOYSSOPAV-BYULHYEWSA-N

>  <scratch_subdir>  (6) 
/opt/xchem-fragalysis-2/maxwin/BulkDock/SCRATCH/352918/C203-P56

>  <ref_mols>  (6) 
m0597a,m0658a

>  <HIPPO Compound ID>  (6) 
203

>  <energy_score>  (6) 
-62.525684

>  <alias>  (6) 
None

>  <original ID>  (6) 
BNPOGDOYSSOPAV-BYULHYEWSA-N

>  <SLURM_JOB_ID>  (6) 
352918

>  <HIPPO Pose ID>  (6) 
382

>  <fragmenstein_mode>  (6) 
expansion

>  <fragmenstein_outcome>  (6) 
acceptable

>  <score_inspiration>  (6) 
0.699253

>  <inchikey>  (6) 
BNPOGDOYSSOPAV-BYULHYEWSA-N

>  <csv_name>  (6) 
TRIM21_iter1_fstein_split1000_batch002.csv

>  <fragmenstein_error>  (6) 
None

>  <subsites>  (6) 
None

>  <tags>  (6) 
Fragmenstein placed

$$$$
384
     RDKit          3D

 19 20  0  0  0  0  0  0  0  0999 V2000
  -42.2004   -6.7915  -28.2645 C   0  0  0  0  0  0  0  0  0  0  0  0
  -43.4896   -6.9974  -29.0297 C   0  0  1  0  0  0  0  0  0  0  0  0
  -44.4639   -5.8323  -28.8080 C   0  0  0  0  0  0  0  0  0  0  0  0
  -45.8248   -6.1505  -29.3177 N   0  0  0  0  0  0  0  0  0  0  0  0
  -46.6725   -6.6957  -28.2447 C   0  0  1  0  0  0  0  0  0  0  0  0
  -47.9577   -6.9808  -28.7578 O   0  0  0  0  0  0  0  0  0  0  0  0
  -46.0650   -7.8158  -27.6328 O   0  0  0  0  0  0  0  0  0  0  0  0
  -46.5448   -9.0651  -28.0394 C   0  0  0  0  0  0  0  0  0  0  0  0
  -45.5103   -9.7260  -28.6139 F   0  0  0  0  0  0  0  0  0  0  0  0
  -46.8534   -9.7474  -26.9059 F   0  0  0  0  0  0  0  0  0  0  0  0
  -46.8905   -5.6098  -27.1666 C   0  0  0  0  0  0  0  0  0  0  0  0
  -46.8376   -5.8206  -25.7484 C   0  0  0  0  0  0  0  0  0  0  0  0
  -47.0030   -4.7413  -24.9833 N   0  0  0  0  0  0  0  0  0  0  0  0
  -47.2911   -3.5062  -26.0640 S   0  0  0  0  0  0  0  0  0  0  0  0
  -47.2230   -4.3522  -27.5048 N   0  0  0  0  0  0  0  0  0  0  0  0
  -45.7180   -7.0091  -30.5330 C   0  0  1  0  0  0  0  0  0  0  0  0
  -46.8326   -6.6877  -31.5307 C   0  0  0  0  0  0  0  0  0  0  0  0
  -44.3484   -6.8654  -31.2521 C   0  0  0  0  0  0  0  0  0  0  0  0
  -43.2177   -7.1621  -30.4224 O   0  0  0  0  0  0  0  0  0  0  0  0
  2  1  1  1
  2  3  1  0
  3  4  1  0
  4  5  1  0
  5  6  1  6
  5  7  1  0
  7  8  1  0
  8  9  1  0
  8 10  1  0
  5 11  1  0
 11 12  1  0
 12 13  2  0
 13 14  1  0
 14 15  1  0
  4 16  1  0
 16 17  1  6
 16 18  1  0
 18 19  1  0
 19  2  1  0
 15 11  2  0
M  END
>  <original SMILES>  (7) 
C[C@H]1CN([C@@](O)(OC(F)F)c2cnsn2)[C@@H](C)CO1

>  <ref_pdb>  (7) 
m0658a

>  <distance_score>  (7) 
0.856944

>  <fragmenstein_runtime>  (7) 
2.035438

>  <name>  (7) 
BNPOGDOYSSOPAV-BYULHYEWSA-N

>  <scratch_subdir>  (7) 
/opt/xchem-fragalysis-2/maxwin/BulkDock/SCRATCH/352918/C203-P66

>  <ref_mols>  (7) 
m0597a,m0658a

>  <HIPPO Compound ID>  (7) 
203

>  <energy_score>  (7) 
-62.803961

>  <alias>  (7) 
None

>  <original ID>  (7) 
BNPOGDOYSSOPAV-BYULHYEWSA-N

>  <SLURM_JOB_ID>  (7) 
352918

>  <HIPPO Pose ID>  (7) 
384

>  <fragmenstein_mode>  (7) 
expansion

>  <fragmenstein_outcome>  (7) 
acceptable

>  <score_inspiration>  (7) 
0.683886

>  <inchikey>  (7) 
BNPOGDOYSSOPAV-BYULHYEWSA-N

>  <csv_name>  (7) 
TRIM21_iter1_fstein_split1000_batch002.csv

>  <fragmenstein_error>  (7) 
None

>  <subsites>  (7) 
None

>  <tags>  (7) 
Fragmenstein placed

$$$$
471
     RDKit          3D

 16 17  0  0  0  0  0  0  0  0999 V2000
  -43.1467   -7.4861  -28.9629 C   0  0  0  0  0  0  0  0  0  0  0  0
  -44.3905   -6.7656  -29.5205 C   0  0  1  0  0  0  0  0  0  0  0  0
  -45.2357   -7.7591  -30.3174 C   0  0  0  0  0  0  0  0  0  0  0  0
  -46.0930   -8.4792  -29.2790 C   0  0  0  0  0  0  0  0  0  0  0  0
  -46.0333   -7.6299  -28.0012 C   0  0  0  0  0  0  0  0  0  0  0  0
  -45.3823   -6.2944  -28.4298 C   0  0  2  0  0  0  0  0  0  0  0  0
  -46.4664   -5.4230  -28.9246 N   0  0  0  0  0  0  0  0  0  0  0  0
  -46.9395   -4.6272  -27.7699 C   0  0  0  0  0  0  0  0  0  0  0  0
  -45.6951   -3.9917  -27.1799 C   0  0  1  0  0  0  0  0  0  0  0  0
  -45.8347   -3.1540  -25.8972 C   0  0  0  0  0  0  0  0  0  0  0  0
  -45.8944   -3.9148  -24.6388 N   0  0  0  0  0  0  0  0  0  0  0  0
  -45.4665   -3.1507  -23.4930 C   0  0  0  0  0  0  0  0  0  0  0  0
  -46.2712   -1.8772  -23.2453 C   0  0  0  0  0  0  0  0  0  0  0  0
  -45.6246   -3.9756  -22.3715 O   0  0  0  0  0  0  0  0  0  0  0  0
  -44.0874   -2.9039  -23.5693 O   0  0  0  0  0  0  0  0  0  0  0  0
  -44.5504   -5.3633  -27.1094 S   0  0  0  0  0  0  0  0  0  0  0  0
  2  1  1  1
  2  3  1  0
  3  4  1  0
  4  5  1  0
  6  5  1  1
  6  7  1  0
  7  8  1  0
  8  9  1  0
  9 10  1  1
 10 11  1  0
 11 12  1  0
 12 13  1  0
 12 14  1  0
 12 15  1  0
  9 16  1  0
  6  2  1  0
 16  6  1  0
M  END
>  <original SMILES>  (8) 
C[C@H]1CCC[C@]12NC[C@@H](CNC(C)(O)O)S2

>  <ref_pdb>  (8) 
m0455a

>  <distance_score>  (8) 
0.988103

>  <fragmenstein_runtime>  (8) 
1.777951

>  <name>  (8) 
NQFZKYKYDRYJJF-IQJOONFLSA-N

>  <scratch_subdir>  (8) 
/opt/xchem-fragalysis-2/maxwin/BulkDock/SCRATCH/352917/C826-P38

>  <ref_mols>  (8) 
m0455a,m0597a

>  <HIPPO Compound ID>  (8) 
826

>  <energy_score>  (8) 
-50.625498

>  <alias>  (8) 
None

>  <original ID>  (8) 
NQFZKYKYDRYJJF-IQJOONFLSA-N

>  <SLURM_JOB_ID>  (8) 
352917

>  <HIPPO Pose ID>  (8) 
471

>  <fragmenstein_mode>  (8) 
expansion

>  <fragmenstein_outcome>  (8) 
acceptable

>  <score_inspiration>  (8) 
0.596289

>  <inchikey>  (8) 
NQFZKYKYDRYJJF-IQJOONFLSA-N

>  <csv_name>  (8) 
TRIM21_iter1_fstein_split1000_batch001.csv

>  <fragmenstein_error>  (8) 
None

>  <subsites>  (8) 
None

>  <tags>  (8) 
Fragmenstein placed

$$$$
533
     RDKit          3D

 15 16  0  0  0  0  0  0  0  0999 V2000
  -44.9061   -8.4980  -30.1010 C   0  0  0  0  0  0  0  0  0  0  0  0
  -43.7570   -7.6346  -29.8870 N   0  0  0  0  0  0  0  0  0  0  0  0
  -42.9407   -8.0783  -28.7614 C   0  0  0  0  0  0  0  0  0  0  0  0
  -42.3123   -6.8343  -28.1830 C   0  0  0  0  0  0  0  0  0  0  0  0
  -43.3606   -5.7828  -28.4472 C   0  0  0  0  0  0  0  0  0  0  0  0
  -44.0013   -6.1973  -29.7637 C   0  0  2  0  0  0  0  0  0  0  0  0
  -45.3911   -5.6167  -30.0113 C   0  0  0  0  0  0  0  0  0  0  0  0
  -46.5586   -6.0806  -29.1712 C   0  0  0  0  0  0  0  0  0  0  0  0
  -47.4040   -6.8347  -29.6575 O   0  0  0  0  0  0  0  0  0  0  0  0
  -46.7563   -5.5851  -27.7777 C   0  0  0  0  0  0  0  0  0  0  0  0
  -47.6031   -6.2973  -26.9319 C   0  0  0  0  0  0  0  0  0  0  0  0
  -47.8092   -5.8111  -25.6531 C   0  0  0  0  0  0  0  0  0  0  0  0
  -47.2418   -4.6823  -25.1751 N   0  0  0  0  0  0  0  0  0  0  0  0
  -46.4308   -4.0102  -26.0110 C   0  0  0  0  0  0  0  0  0  0  0  0
  -46.1597   -4.4203  -27.3031 C   0  0  0  0  0  0  0  0  0  0  0  0
  1  2  1  0
  2  3  1  0
  3  4  1  0
  4  5  1  0
  5  6  1  0
  6  7  1  1
  7  8  1  0
  8  9  2  0
  8 10  1  0
 10 11  2  0
 11 12  1  0
 12 13  2  0
 13 14  1  0
 14 15  2  0
  6  2  1  0
 15 10  1  0
M  END
>  <original SMILES>  (9) 
CN1CCC[C@@H]1CC(=O)c1ccncc1

>  <ref_pdb>  (9) 
m0457a

>  <distance_score>  (9) 
0.704832

>  <fragmenstein_runtime>  (9) 
0.99039

>  <name>  (9) 
RQTWUEPTZPSADY-LLVKDONJSA-N

>  <scratch_subdir>  (9) 
/opt/xchem-fragalysis-2/maxwin/BulkDock/SCRATCH/352917/C866-P39

>  <ref_mols>  (9) 
m0457a,m0536a

>  <HIPPO Compound ID>  (9) 
866

>  <energy_score>  (9) 
-8.214119

>  <alias>  (9) 
None

>  <original ID>  (9) 
RQTWUEPTZPSADY-LLVKDONJSA-N

>  <SLURM_JOB_ID>  (9) 
352917

>  <HIPPO Pose ID>  (9) 
533

>  <fragmenstein_mode>  (9) 
expansion

>  <fragmenstein_outcome>  (9) 
acceptable

>  <score_inspiration>  (9) 
0.557719

>  <inchikey>  (9) 
RQTWUEPTZPSADY-LLVKDONJSA-N

>  <csv_name>  (9) 
TRIM21_iter1_fstein_split1000_batch001.csv

>  <fragmenstein_error>  (9) 
None

>  <subsites>  (9) 
None

>  <tags>  (9) 
Fragmenstein placed

$$$$
534
     RDKit          3D

 15 16  0  0  0  0  0  0  0  0999 V2000
  -44.7724   -8.4535  -30.0521 C   0  0  0  0  0  0  0  0  0  0  0  0
  -43.6419   -7.5751  -29.7970 N   0  0  0  0  0  0  0  0  0  0  0  0
  -42.8626   -8.0211  -28.6477 C   0  0  0  0  0  0  0  0  0  0  0  0
  -42.2597   -6.7720  -28.0533 C   0  0  0  0  0  0  0  0  0  0  0  0
  -43.3269   -5.7391  -28.3013 C   0  0  0  0  0  0  0  0  0  0  0  0
  -43.9270   -6.1445  -29.6440 C   0  0  2  0  0  0  0  0  0  0  0  0
  -45.3260   -5.6032  -29.9193 C   0  0  0  0  0  0  0  0  0  0  0  0
  -46.5120   -6.0980  -29.1259 C   0  0  0  0  0  0  0  0  0  0  0  0
  -47.3195   -6.8711  -29.6461 O   0  0  0  0  0  0  0  0  0  0  0  0
  -46.7816   -5.5976  -27.7454 C   0  0  0  0  0  0  0  0  0  0  0  0
  -47.7212   -6.2700  -26.9692 C   0  0  0  0  0  0  0  0  0  0  0  0
  -48.0093   -5.7688  -25.7128 C   0  0  0  0  0  0  0  0  0  0  0  0
  -47.4345   -4.6644  -25.1893 N   0  0  0  0  0  0  0  0  0  0  0  0
  -46.5250   -4.0359  -25.9533 C   0  0  0  0  0  0  0  0  0  0  0  0
  -46.1710   -4.4620  -27.2198 C   0  0  0  0  0  0  0  0  0  0  0  0
  1  2  1  0
  2  3  1  0
  3  4  1  0
  4  5  1  0
  5  6  1  0
  6  7  1  1
  7  8  1  0
  8  9  2  0
  8 10  1  0
 10 11  2  0
 11 12  1  0
 12 13  2  0
 13 14  1  0
 14 15  2  0
  6  2  1  0
 15 10  1  0
M  END
>  <original SMILES>  (10) 
CN1CCC[C@@H]1CC(=O)c1ccncc1

>  <ref_pdb>  (10) 
m0536a

>  <distance_score>  (10) 
0.698191

>  <fragmenstein_runtime>  (10) 
1.307947

>  <name>  (10) 
RQTWUEPTZPSADY-LLVKDONJSA-N

>  <scratch_subdir>  (10) 
/opt/xchem-fragalysis-2/maxwin/BulkDock/SCRATCH/352917/C866-P50

>  <ref_mols>  (10) 
m0457a,m0536a

>  <HIPPO Compound ID>  (10) 
866

>  <energy_score>  (10) 
-7.801415

>  <alias>  (10) 
None

>  <original ID>  (10) 
RQTWUEPTZPSADY-LLVKDONJSA-N

>  <SLURM_JOB_ID>  (10) 
352917

>  <HIPPO Pose ID>  (10) 
534

>  <fragmenstein_mode>  (10) 
expansion

>  <fragmenstein_outcome>  (10) 
acceptable

>  <score_inspiration>  (10) 
0.5474

>  <inchikey>  (10) 
RQTWUEPTZPSADY-LLVKDONJSA-N

>  <csv_name>  (10) 
TRIM21_iter1_fstein_split1000_batch001.csv

>  <fragmenstein_error>  (10) 
None

>  <subsites>  (10) 
None

>  <tags>  (10) 
Fragmenstein placed

$$$$
545
     RDKit          3D

 18 19  0  0  0  0  0  0  0  0999 V2000
  -45.7144   -0.9128  -23.9950 C   0  0  0  0  0  0  0  0  0  0  0  0
  -46.9985   -2.0687  -24.4175 S   0  0  0  0  0  0  0  0  0  0  0  0
  -47.7750   -2.3157  -23.2217 O   0  0  0  0  0  0  0  0  0  0  0  0
  -47.6110   -1.6232  -25.6488 O   0  0  0  0  0  0  0  0  0  0  0  0
  -46.0528   -3.4544  -24.6958 N   0  0  0  0  0  0  0  0  0  0  0  0
  -46.6656   -4.3683  -25.5869 C   0  0  0  0  0  0  0  0  0  0  0  0
  -46.3965   -4.4257  -26.9441 C   0  0  0  0  0  0  0  0  0  0  0  0
  -47.0181   -5.4257  -27.6986 C   0  0  0  0  0  0  0  0  0  0  0  0
  -46.8091   -5.6121  -29.0773 N   0  0  0  0  0  0  0  0  0  0  0  0
  -45.4305   -5.5027  -29.5802 C   0  0  0  0  0  0  0  0  0  0  0  0
  -44.5390   -6.5689  -28.9561 C   0  0  2  0  0  0  0  0  0  0  0  0
  -43.3365   -6.0078  -28.2346 C   0  0  0  0  0  0  0  0  0  0  0  0
  -42.3722   -7.1730  -28.1958 C   0  0  0  0  0  0  0  0  0  0  0  0
  -43.0215   -8.1986  -29.1012 C   0  0  0  0  0  0  0  0  0  0  0  0
  -43.9624   -7.4744  -29.9013 O   0  0  0  0  0  0  0  0  0  0  0  0
  -47.9345   -6.2536  -27.0471 C   0  0  0  0  0  0  0  0  0  0  0  0
  -48.1274   -6.1075  -25.6845 C   0  0  0  0  0  0  0  0  0  0  0  0
  -47.4909   -5.1923  -24.9357 N   0  0  0  0  0  0  0  0  0  0  0  0
  1  2  1  0
  2  3  2  0
  2  4  2  0
  2  5  1  0
  5  6  1  0
  6  7  2  0
  7  8  1  0
  8  9  1  0
  9 10  1  0
 11 10  1  6
 11 12  1  0
 12 13  1  0
 13 14  1  0
 14 15  1  0
  8 16  2  0
 16 17  1  0
 17 18  2  0
 18  6  1  0
 15 11  1  0
M  END
>  <original SMILES>  (11) 
CS(=O)(=O)Nc1cc(NC[C@@H]2CCCO2)ccn1

>  <ref_pdb>  (11) 
m0597a

>  <distance_score>  (11) 
0.839927

>  <fragmenstein_runtime>  (11) 
1.537647

>  <name>  (11) 
KOQOQNRZFCKZJR-JTQLQIEISA-N

>  <scratch_subdir>  (11) 
/opt/xchem-fragalysis-2/maxwin/BulkDock/SCRATCH/352917/C868-P56

>  <ref_mols>  (11) 
m0457a,m0597a

>  <HIPPO Compound ID>  (11) 
868

>  <energy_score>  (11) 
-31.206221

>  <alias>  (11) 
None

>  <original ID>  (11) 
KOQOQNRZFCKZJR-JTQLQIEISA-N

>  <SLURM_JOB_ID>  (11) 
352917

>  <HIPPO Pose ID>  (11) 
545

>  <fragmenstein_mode>  (11) 
expansion

>  <fragmenstein_outcome>  (11) 
acceptable

>  <score_inspiration>  (11) 
0.510224

>  <inchikey>  (11) 
KOQOQNRZFCKZJR-JTQLQIEISA-N

>  <csv_name>  (11) 
TRIM21_iter1_fstein_split1000_batch001.csv

>  <fragmenstein_error>  (11) 
None

>  <subsites>  (11) 
None

>  <tags>  (11) 
Fragmenstein placed

$$$$
546
     RDKit          3D

 19 20  0  0  0  0  0  0  0  0999 V2000
  -44.9880   -2.4909  -22.7421 C   0  0  0  0  0  0  0  0  0  0  0  0
  -46.4489   -1.5945  -23.1324 S   0  0  0  0  0  0  0  0  0  0  0  0
  -47.2750   -1.5585  -21.9500 O   0  0  0  0  0  0  0  0  0  0  0  0
  -46.0465   -0.4062  -23.8476 O   0  0  0  0  0  0  0  0  0  0  0  0
  -47.1708   -2.6406  -24.1868 N   0  0  0  0  0  0  0  0  0  0  0  0
  -46.5884   -2.8632  -25.5084 C   0  0  0  0  0  0  0  0  0  0  0  0
  -46.8369   -4.2609  -26.0181 C   0  0  0  0  0  0  0  0  0  0  0  0
  -46.3647   -4.6539  -27.2704 C   0  0  0  0  0  0  0  0  0  0  0  0
  -46.6107   -5.9446  -27.7370 C   0  0  0  0  0  0  0  0  0  0  0  0
  -46.2382   -6.4163  -28.9858 N   0  0  0  0  0  0  0  0  0  0  0  0
  -45.3626   -5.7076  -29.9197 C   0  0  0  0  0  0  0  0  0  0  0  0
  -43.8920   -6.1211  -29.8017 C   0  0  1  0  0  0  0  0  0  0  0  0
  -43.2152   -5.7290  -28.5043 C   0  0  0  0  0  0  0  0  0  0  0  0
  -42.3054   -6.8849  -28.1993 C   0  0  0  0  0  0  0  0  0  0  0  0
  -43.0177   -8.0489  -28.8349 C   0  0  0  0  0  0  0  0  0  0  0  0
  -43.7801   -7.5480  -29.9304 O   0  0  0  0  0  0  0  0  0  0  0  0
  -47.4016   -6.7629  -26.9338 C   0  0  0  0  0  0  0  0  0  0  0  0
  -47.8521   -6.2943  -25.7116 C   0  0  0  0  0  0  0  0  0  0  0  0
  -47.5626   -5.0771  -25.2187 N   0  0  0  0  0  0  0  0  0  0  0  0
  1  2  1  0
  2  3  2  0
  2  4  2  0
  2  5  1  0
  5  6  1  0
  6  7  1  0
  7  8  2  0
  8  9  1  0
  9 10  1  0
 10 11  1  0
 12 11  1  1
 12 13  1  0
 13 14  1  0
 14 15  1  0
 15 16  1  0
  9 17  2  0
 17 18  1  0
 18 19  2  0
 19  7  1  0
 16 12  1  0
M  END
>  <original SMILES>  (12) 
CS(=O)(=O)NCc1cc(NC[C@H]2CCCO2)ccn1

>  <ref_pdb>  (12) 
m0457a

>  <distance_score>  (12) 
0.803351

>  <fragmenstein_runtime>  (12) 
3.020344

>  <name>  (12) 
FKZCIHAPKLPCKB-GFCCVEGCSA-N

>  <scratch_subdir>  (12) 
/opt/xchem-fragalysis-2/maxwin/BulkDock/SCRATCH/352917/C833-P39

>  <ref_mols>  (12) 
m0457a,m0611a

>  <HIPPO Compound ID>  (12) 
833

>  <energy_score>  (12) 
-40.788767

>  <alias>  (12) 
None

>  <original ID>  (12) 
FKZCIHAPKLPCKB-GFCCVEGCSA-N

>  <SLURM_JOB_ID>  (12) 
352917

>  <HIPPO Pose ID>  (12) 
546

>  <fragmenstein_mode>  (12) 
expansion

>  <fragmenstein_outcome>  (12) 
acceptable

>  <score_inspiration>  (12) 
0.685226

>  <inchikey>  (12) 
FKZCIHAPKLPCKB-GFCCVEGCSA-N

>  <csv_name>  (12) 
TRIM21_iter1_fstein_split1000_batch001.csv

>  <fragmenstein_error>  (12) 
None

>  <subsites>  (12) 
None

>  <tags>  (12) 
Fragmenstein placed

$$$$
547
     RDKit          3D

 19 20  0  0  0  0  0  0  0  0999 V2000
  -45.1131   -2.6310  -22.6540 C   0  0  0  0  0  0  0  0  0  0  0  0
  -46.4701   -1.6054  -23.0908 S   0  0  0  0  0  0  0  0  0  0  0  0
  -47.3337   -1.5158  -21.9384 O   0  0  0  0  0  0  0  0  0  0  0  0
  -45.9256   -0.4443  -23.7553 O   0  0  0  0  0  0  0  0  0  0  0  0
  -47.2330   -2.5622  -24.1997 N   0  0  0  0  0  0  0  0  0  0  0  0
  -46.6179   -2.8063  -25.5058 C   0  0  0  0  0  0  0  0  0  0  0  0
  -46.8508   -4.2153  -25.9950 C   0  0  0  0  0  0  0  0  0  0  0  0
  -46.3493   -4.6354  -27.2277 C   0  0  0  0  0  0  0  0  0  0  0  0
  -46.5795   -5.9382  -27.6711 C   0  0  0  0  0  0  0  0  0  0  0  0
  -46.1733   -6.4394  -28.8974 N   0  0  0  0  0  0  0  0  0  0  0  0
  -45.3117   -5.7366  -29.8482 C   0  0  0  0  0  0  0  0  0  0  0  0
  -43.8271   -6.0893  -29.7045 C   0  0  1  0  0  0  0  0  0  0  0  0
  -43.1823   -5.6487  -28.4045 C   0  0  0  0  0  0  0  0  0  0  0  0
  -42.2473   -6.7711  -28.0616 C   0  0  0  0  0  0  0  0  0  0  0  0
  -42.9341   -7.9671  -28.6656 C   0  0  0  0  0  0  0  0  0  0  0  0
  -43.6530   -7.5140  -29.8097 O   0  0  0  0  0  0  0  0  0  0  0  0
  -47.3871   -6.7404  -26.8689 C   0  0  0  0  0  0  0  0  0  0  0  0
  -47.8712   -6.2439  -25.6708 C   0  0  0  0  0  0  0  0  0  0  0  0
  -47.5968   -5.0150  -25.1974 N   0  0  0  0  0  0  0  0  0  0  0  0
  1  2  1  0
  2  3  2  0
  2  4  2  0
  2  5  1  0
  5  6  1  0
  6  7  1  0
  7  8  2  0
  8  9  1  0
  9 10  1  0
 10 11  1  0
 12 11  1  1
 12 13  1  0
 13 14  1  0
 14 15  1  0
 15 16  1  0
  9 17  2  0
 17 18  1  0
 18 19  2  0
 19  7  1  0
 16 12  1  0
M  END
>  <original SMILES>  (13) 
CS(=O)(=O)NCc1cc(NC[C@H]2CCCO2)ccn1

>  <ref_pdb>  (13) 
m0611a

>  <distance_score>  (13) 
0.787852

>  <fragmenstein_runtime>  (13) 
2.660967

>  <name>  (13) 
FKZCIHAPKLPCKB-GFCCVEGCSA-N

>  <scratch_subdir>  (13) 
/opt/xchem-fragalysis-2/maxwin/BulkDock/SCRATCH/352917/C833-P60

>  <ref_mols>  (13) 
m0457a,m0611a

>  <HIPPO Compound ID>  (13) 
833

>  <energy_score>  (13) 
-40.704614

>  <alias>  (13) 
None

>  <original ID>  (13) 
FKZCIHAPKLPCKB-GFCCVEGCSA-N

>  <SLURM_JOB_ID>  (13) 
352917

>  <HIPPO Pose ID>  (13) 
547

>  <fragmenstein_mode>  (13) 
expansion

>  <fragmenstein_outcome>  (13) 
acceptable

>  <score_inspiration>  (13) 
0.686479

>  <inchikey>  (13) 
FKZCIHAPKLPCKB-GFCCVEGCSA-N

>  <csv_name>  (13) 
TRIM21_iter1_fstein_split1000_batch001.csv

>  <fragmenstein_error>  (13) 
None

>  <subsites>  (13) 
None

>  <tags>  (13) 
Fragmenstein placed

$$$$
548
     RDKit          3D

 18 19  0  0  0  0  0  0  0  0999 V2000
  -45.0202   -2.4603  -24.8038 C   0  0  0  0  0  0  0  0  0  0  0  0
  -45.2804   -3.5609  -23.4139 S   0  0  0  0  0  0  0  0  0  0  0  0
  -44.0291   -4.2362  -23.1182 O   0  0  0  0  0  0  0  0  0  0  0  0
  -45.8998   -2.8022  -22.3488 O   0  0  0  0  0  0  0  0  0  0  0  0
  -46.3880   -4.7378  -23.8500 N   0  0  0  0  0  0  0  0  0  0  0  0
  -46.7850   -4.7843  -25.2030 C   0  0  0  0  0  0  0  0  0  0  0  0
  -46.2428   -5.6752  -26.1163 C   0  0  0  0  0  0  0  0  0  0  0  0
  -46.5756   -5.5207  -27.4623 C   0  0  0  0  0  0  0  0  0  0  0  0
  -46.0385   -6.3457  -28.4543 N   0  0  0  0  0  0  0  0  0  0  0  0
  -45.2853   -5.6805  -29.5395 C   0  0  0  0  0  0  0  0  0  0  0  0
  -43.7772   -5.9730  -29.4637 C   0  0  1  0  0  0  0  0  0  0  0  0
  -43.1040   -5.4942  -28.1854 C   0  0  0  0  0  0  0  0  0  0  0  0
  -42.1972   -6.6292  -27.8008 C   0  0  0  0  0  0  0  0  0  0  0  0
  -42.8561   -7.8360  -28.4131 C   0  0  0  0  0  0  0  0  0  0  0  0
  -43.5673   -7.3946  -29.5634 O   0  0  0  0  0  0  0  0  0  0  0  0
  -47.4439   -4.4860  -27.8003 C   0  0  0  0  0  0  0  0  0  0  0  0
  -47.9545   -3.6750  -26.8025 C   0  0  0  0  0  0  0  0  0  0  0  0
  -47.6434   -3.8033  -25.5017 N   0  0  0  0  0  0  0  0  0  0  0  0
  1  2  1  0
  2  3  2  0
  2  4  2  0
  2  5  1  0
  5  6  1  0
  6  7  2  0
  7  8  1  0
  8  9  1  0
  9 10  1  0
 11 10  1  1
 11 12  1  0
 12 13  1  0
 13 14  1  0
 14 15  1  0
  8 16  2  0
 16 17  1  0
 17 18  2  0
 18  6  1  0
 15 11  1  0
M  END
>  <original SMILES>  (14) 
CS(=O)(=O)Nc1cc(NC[C@H]2CCCO2)ccn1

>  <ref_pdb>  (14) 
m0631a

>  <distance_score>  (14) 
0.87452

>  <fragmenstein_runtime>  (14) 
2.059261

>  <name>  (14) 
KOQOQNRZFCKZJR-SNVBAGLBSA-N

>  <scratch_subdir>  (14) 
/opt/xchem-fragalysis-2/maxwin/BulkDock/SCRATCH/352917/C868-P62

>  <ref_mols>  (14) 
m0457a,m0631a

>  <HIPPO Compound ID>  (14) 
868

>  <energy_score>  (14) 
-36.468097

>  <alias>  (14) 
None

>  <original ID>  (14) 
KOQOQNRZFCKZJR-SNVBAGLBSA-N

>  <SLURM_JOB_ID>  (14) 
352917

>  <HIPPO Pose ID>  (14) 
548

>  <fragmenstein_mode>  (14) 
expansion

>  <fragmenstein_outcome>  (14) 
acceptable

>  <score_inspiration>  (14) 
0.763194

>  <inchikey>  (14) 
KOQOQNRZFCKZJR-SNVBAGLBSA-N

>  <csv_name>  (14) 
TRIM21_iter1_fstein_split1000_batch001.csv

>  <fragmenstein_error>  (14) 
None

>  <subsites>  (14) 
None

>  <tags>  (14) 
Fragmenstein placed

$$$$
575
     RDKit          3D

 21 22  0  0  0  0  0  0  0  0999 V2000
  -50.1805  -10.7947  -28.6413 C   0  0  0  0  0  0  0  0  0  0  0  0
  -49.8855   -9.3757  -28.7858 N   0  0  0  0  0  0  0  0  0  0  0  0
  -49.7441   -8.7231  -27.4698 C   0  0  0  0  0  0  0  0  0  0  0  0
  -49.0186   -7.3672  -27.5644 C   0  0  0  0  0  0  0  0  0  0  0  0
  -47.5556   -7.4976  -27.9029 C   0  0  0  0  0  0  0  0  0  0  0  0
  -47.1597   -8.6570  -28.4588 N   0  0  0  0  0  0  0  0  0  0  0  0
  -45.8722   -8.7585  -28.7887 C   0  0  0  0  0  0  0  0  0  0  0  0
  -44.9674   -7.7445  -28.5962 C   0  0  0  0  0  0  0  0  0  0  0  0
  -43.6335   -7.9356  -28.9566 C   0  0  0  0  0  0  0  0  0  0  0  0
  -42.7402   -6.9041  -28.7966 C   0  0  0  0  0  0  0  0  0  0  0  0
  -43.1971   -5.6863  -28.3308 C   0  0  0  0  0  0  0  0  0  0  0  0
  -44.4987   -5.5266  -27.8252 C   0  0  0  0  0  0  0  0  0  0  0  0
  -44.7618   -4.2711  -27.2362 N   0  0  0  0  0  0  0  0  0  0  0  0
  -45.5268   -4.2055  -25.9900 C   0  0  0  0  0  0  0  0  0  0  0  0
  -45.3200   -2.8486  -25.3236 C   0  0  0  0  0  0  0  0  0  0  0  0
  -45.2416   -2.8485  -23.5528 S   0  0  0  0  0  0  0  0  0  0  0  0
  -46.7185   -3.6777  -23.0814 C   0  0  0  0  0  0  0  0  0  0  0  0
  -45.3594   -1.4774  -23.0995 O   0  0  0  0  0  0  0  0  0  0  0  0
  -44.1182   -3.6388  -23.0842 O   0  0  0  0  0  0  0  0  0  0  0  0
  -45.4463   -6.5533  -28.0198 C   0  0  0  0  0  0  0  0  0  0  0  0
  -46.7499   -6.4406  -27.6710 N   0  0  0  0  0  0  0  0  0  0  0  0
  1  2  1  0
  2  3  1  0
  3  4  1  0
  4  5  1  0
  5  6  2  0
  6  7  1  0
  7  8  2  0
  8  9  1  0
  9 10  2  0
 10 11  1  0
 11 12  2  0
 12 13  1  0
 13 14  1  0
 14 15  1  0
 15 16  1  0
 16 17  1  0
 16 18  2  0
 16 19  2  0
 12 20  1  0
 20 21  2  0
 21  5  1  0
 20  8  1  0
M  END
>  <original SMILES>  (15) 
CNCCc1ncc2cccc(NCCS(C)(=O)=O)c2n1

>  <ref_pdb>  (15) 
m0140a

>  <distance_score>  (15) 
0.887433

>  <fragmenstein_runtime>  (15) 
5.116141

>  <name>  (15) 
JGHYZHFMNDCUJR-UHFFFAOYSA-N

>  <scratch_subdir>  (15) 
/opt/xchem-fragalysis-2/maxwin/BulkDock/SCRATCH/352917/C888-P8

>  <ref_mols>  (15) 
m0140a,m0468a

>  <HIPPO Compound ID>  (15) 
888

>  <energy_score>  (15) 
-19.175502

>  <alias>  (15) 
None

>  <original ID>  (15) 
JGHYZHFMNDCUJR-UHFFFAOYSA-N

>  <SLURM_JOB_ID>  (15) 
352917

>  <HIPPO Pose ID>  (15) 
575

>  <fragmenstein_mode>  (15) 
expansion

>  <fragmenstein_outcome>  (15) 
acceptable

>  <score_inspiration>  (15) 
0.643907

>  <inchikey>  (15) 
JGHYZHFMNDCUJR-UHFFFAOYSA-N

>  <csv_name>  (15) 
TRIM21_iter1_fstein_split1000_batch001.csv

>  <fragmenstein_error>  (15) 
None

>  <subsites>  (15) 
None

>  <tags>  (15) 
Fragmenstein placed

$$$$
576
     RDKit          3D

 21 22  0  0  0  0  0  0  0  0999 V2000
  -49.9038  -10.5924  -28.5781 C   0  0  0  0  0  0  0  0  0  0  0  0
  -49.5820   -9.1789  -28.7219 N   0  0  0  0  0  0  0  0  0  0  0  0
  -49.3447   -8.5435  -27.4115 C   0  0  0  0  0  0  0  0  0  0  0  0
  -48.6272   -7.1822  -27.5351 C   0  0  0  0  0  0  0  0  0  0  0  0
  -47.1681   -7.3185  -27.8984 C   0  0  0  0  0  0  0  0  0  0  0  0
  -46.8533   -8.3114  -28.7441 N   0  0  0  0  0  0  0  0  0  0  0  0
  -45.5558   -8.4741  -29.0075 C   0  0  0  0  0  0  0  0  0  0  0  0
  -44.5648   -7.6781  -28.4787 C   0  0  0  0  0  0  0  0  0  0  0  0
  -43.2355   -7.9720  -28.7819 C   0  0  0  0  0  0  0  0  0  0  0  0
  -42.2230   -7.1993  -28.2593 C   0  0  0  0  0  0  0  0  0  0  0  0
  -42.5462   -6.1032  -27.4872 C   0  0  0  0  0  0  0  0  0  0  0  0
  -43.8845   -5.7827  -27.1732 C   0  0  0  0  0  0  0  0  0  0  0  0
  -43.9908   -4.6645  -26.3162 N   0  0  0  0  0  0  0  0  0  0  0  0
  -45.2923   -4.1542  -25.9300 C   0  0  0  0  0  0  0  0  0  0  0  0
  -45.1485   -2.8111  -25.2361 C   0  0  0  0  0  0  0  0  0  0  0  0
  -45.0587   -2.9413  -23.4686 S   0  0  0  0  0  0  0  0  0  0  0  0
  -46.6405   -3.5847  -23.0144 C   0  0  0  0  0  0  0  0  0  0  0  0
  -44.9820   -1.6007  -22.9228 O   0  0  0  0  0  0  0  0  0  0  0  0
  -44.0573   -3.9130  -23.0657 O   0  0  0  0  0  0  0  0  0  0  0  0
  -44.9489   -6.6100  -27.6496 C   0  0  0  0  0  0  0  0  0  0  0  0
  -46.2763   -6.4441  -27.3756 N   0  0  0  0  0  0  0  0  0  0  0  0
  1  2  1  0
  2  3  1  0
  3  4  1  0
  4  5  1  0
  5  6  2  0
  6  7  1  0
  7  8  2  0
  8  9  1  0
  9 10  2  0
 10 11  1  0
 11 12  2  0
 12 13  1  0
 13 14  1  0
 14 15  1  0
 15 16  1  0
 16 17  1  0
 16 18  2  0
 16 19  2  0
 12 20  1  0
 20 21  2  0
 21  5  1  0
 20  8  1  0
M  END
>  <original SMILES>  (16) 
CNCCc1ncc2cccc(NCCS(C)(=O)=O)c2n1

>  <ref_pdb>  (16) 
m0468a

>  <distance_score>  (16) 
0.87639

>  <fragmenstein_runtime>  (16) 
4.05849

>  <name>  (16) 
JGHYZHFMNDCUJR-UHFFFAOYSA-N

>  <scratch_subdir>  (16) 
/opt/xchem-fragalysis-2/maxwin/BulkDock/SCRATCH/352917/C888-P40

>  <ref_mols>  (16) 
m0140a,m0468a

>  <HIPPO Compound ID>  (16) 
888

>  <energy_score>  (16) 
-20.053276

>  <alias>  (16) 
None

>  <original ID>  (16) 
JGHYZHFMNDCUJR-UHFFFAOYSA-N

>  <SLURM_JOB_ID>  (16) 
352917

>  <HIPPO Pose ID>  (16) 
576

>  <fragmenstein_mode>  (16) 
expansion

>  <fragmenstein_outcome>  (16) 
acceptable

>  <score_inspiration>  (16) 
0.700774

>  <inchikey>  (16) 
JGHYZHFMNDCUJR-UHFFFAOYSA-N

>  <csv_name>  (16) 
TRIM21_iter1_fstein_split1000_batch001.csv

>  <fragmenstein_error>  (16) 
None

>  <subsites>  (16) 
None

>  <tags>  (16) 
Fragmenstein placed

$$$$
595
     RDKit          3D

 16 17  0  0  0  0  0  0  0  0999 V2000
  -47.0174   -5.0935  -26.4030 C   0  0  0  0  0  0  0  0  0  0  0  0
  -45.5791   -5.1008  -26.5318 N   0  0  0  0  0  0  0  0  0  0  0  0
  -44.7051   -4.1741  -26.0037 C   0  0  0  0  0  0  0  0  0  0  0  0
  -45.0691   -2.9151  -25.3112 C   0  0  0  0  0  0  0  0  0  0  0  0
  -45.3181   -3.2464  -23.5801 S   0  0  0  0  0  0  0  0  0  0  0  0
  -45.6068   -1.6198  -22.9411 C   0  0  0  0  0  0  0  0  0  0  0  0
  -44.0934   -3.7283  -22.9624 O   0  0  0  0  0  0  0  0  0  0  0  0
  -46.5521   -3.9913  -23.4184 O   0  0  0  0  0  0  0  0  0  0  0  0
  -43.4657   -4.5100  -26.2785 N   0  0  0  0  0  0  0  0  0  0  0  0
  -43.5193   -5.6196  -27.0560 C   0  0  0  0  0  0  0  0  0  0  0  0
  -42.4615   -6.3309  -27.6378 C   0  0  0  0  0  0  0  0  0  0  0  0
  -42.7449   -7.4762  -28.3792 C   0  0  0  0  0  0  0  0  0  0  0  0
  -44.0615   -7.8765  -28.5775 C   0  0  0  0  0  0  0  0  0  0  0  0
  -45.1236   -7.1576  -28.0140 C   0  0  0  0  0  0  0  0  0  0  0  0
  -46.7186   -7.6906  -28.2773 Cl  0  0  0  0  0  0  0  0  0  0  0  0
  -44.8350   -6.0287  -27.2391 C   0  0  0  0  0  0  0  0  0  0  0  0
  1  2  1  0
  2  3  1  0
  3  4  1  0
  4  5  1  0
  5  6  1  0
  5  7  2  0
  5  8  2  0
  3  9  2  0
  9 10  1  0
 10 11  2  0
 11 12  1  0
 12 13  2  0
 13 14  1  0
 14 15  1  0
 14 16  2  0
 16  2  1  0
 16 10  1  0
M  END
>  <original SMILES>  (17) 
Cn1c(CS(C)(=O)=O)nc2cccc(Cl)c21

>  <ref_pdb>  (17) 
m0468a

>  <distance_score>  (17) 
0.720945

>  <fragmenstein_runtime>  (17) 
2.757775

>  <name>  (17) 
MGQCKUBYFMRGLV-UHFFFAOYSA-N

>  <scratch_subdir>  (17) 
/opt/xchem-fragalysis-2/maxwin/BulkDock/SCRATCH/352917/C903-P40

>  <ref_mols>  (17) 
m0468a,m0472a

>  <HIPPO Compound ID>  (17) 
903

>  <energy_score>  (17) 
-20.277927

>  <alias>  (17) 
None

>  <original ID>  (17) 
MGQCKUBYFMRGLV-UHFFFAOYSA-N

>  <SLURM_JOB_ID>  (17) 
352917

>  <HIPPO Pose ID>  (17) 
595

>  <fragmenstein_mode>  (17) 
expansion

>  <fragmenstein_outcome>  (17) 
acceptable

>  <score_inspiration>  (17) 
0.777118

>  <inchikey>  (17) 
MGQCKUBYFMRGLV-UHFFFAOYSA-N

>  <csv_name>  (17) 
TRIM21_iter1_fstein_split1000_batch001.csv

>  <fragmenstein_error>  (17) 
None

>  <subsites>  (17) 
None

>  <tags>  (17) 
Fragmenstein placed

$$$$
596
     RDKit          3D

 16 17  0  0  0  0  0  0  0  0999 V2000
  -47.3658   -5.5249  -26.5177 C   0  0  0  0  0  0  0  0  0  0  0  0
  -45.9292   -5.4306  -26.4504 N   0  0  0  0  0  0  0  0  0  0  0  0
  -45.2247   -4.5503  -25.6607 C   0  0  0  0  0  0  0  0  0  0  0  0
  -45.7656   -3.2787  -25.1141 C   0  0  0  0  0  0  0  0  0  0  0  0
  -45.4966   -3.1505  -23.3565 S   0  0  0  0  0  0  0  0  0  0  0  0
  -45.4711   -1.3973  -23.1027 C   0  0  0  0  0  0  0  0  0  0  0  0
  -44.1990   -3.6474  -22.9312 O   0  0  0  0  0  0  0  0  0  0  0  0
  -46.6973   -3.6236  -22.7090 O   0  0  0  0  0  0  0  0  0  0  0  0
  -43.9558   -4.8967  -25.6458 N   0  0  0  0  0  0  0  0  0  0  0  0
  -43.7872   -5.7703  -26.6751 C   0  0  0  0  0  0  0  0  0  0  0  0
  -42.5962   -6.2771  -27.2090 C   0  0  0  0  0  0  0  0  0  0  0  0
  -42.6616   -7.2181  -28.2355 C   0  0  0  0  0  0  0  0  0  0  0  0
  -43.8941   -7.6181  -28.7426 C   0  0  0  0  0  0  0  0  0  0  0  0
  -45.0859   -7.0843  -28.2336 C   0  0  0  0  0  0  0  0  0  0  0  0
  -46.5702   -7.5414  -28.9282 Cl  0  0  0  0  0  0  0  0  0  0  0  0
  -45.0165   -6.1589  -27.1884 C   0  0  0  0  0  0  0  0  0  0  0  0
  1  2  1  0
  2  3  1  0
  3  4  1  0
  4  5  1  0
  5  6  1  0
  5  7  2  0
  5  8  2  0
  3  9  2  0
  9 10  1  0
 10 11  2  0
 11 12  1  0
 12 13  2  0
 13 14  1  0
 14 15  1  0
 14 16  2  0
 16  2  1  0
 16 10  1  0
M  END
>  <original SMILES>  (18) 
Cn1c(CS(C)(=O)=O)nc2cccc(Cl)c21

>  <ref_pdb>  (18) 
m0472a

>  <distance_score>  (18) 
0.900721

>  <fragmenstein_runtime>  (18) 
2.783345

>  <name>  (18) 
MGQCKUBYFMRGLV-UHFFFAOYSA-N

>  <scratch_subdir>  (18) 
/opt/xchem-fragalysis-2/maxwin/BulkDock/SCRATCH/352917/C903-P44

>  <ref_mols>  (18) 
m0468a,m0472a

>  <HIPPO Compound ID>  (18) 
903

>  <energy_score>  (18) 
-10.705755

>  <alias>  (18) 
None

>  <original ID>  (18) 
MGQCKUBYFMRGLV-UHFFFAOYSA-N

>  <SLURM_JOB_ID>  (18) 
352917

>  <HIPPO Pose ID>  (18) 
596

>  <fragmenstein_mode>  (18) 
expansion

>  <fragmenstein_outcome>  (18) 
acceptable

>  <score_inspiration>  (18) 
0.669091

>  <inchikey>  (18) 
MGQCKUBYFMRGLV-UHFFFAOYSA-N

>  <csv_name>  (18) 
TRIM21_iter1_fstein_split1000_batch001.csv

>  <fragmenstein_error>  (18) 
None

>  <subsites>  (18) 
None

>  <tags>  (18) 
Fragmenstein placed

$$$$
598
     RDKit          3D

 22 23  0  0  0  0  0  0  0  0999 V2000
  -45.3896   -1.4435  -22.9923 C   0  0  0  0  0  0  0  0  0  0  0  0
  -45.1684   -3.0918  -23.5985 S   0  0  0  0  0  0  0  0  0  0  0  0
  -43.9221   -3.5939  -23.0375 O   0  0  0  0  0  0  0  0  0  0  0  0
  -46.4076   -3.8003  -23.3462 O   0  0  0  0  0  0  0  0  0  0  0  0
  -44.9383   -2.7991  -25.3440 C   0  0  0  0  0  0  0  0  0  0  0  0
  -44.7874   -4.1088  -26.0093 C   0  0  0  0  0  0  0  0  0  0  0  0
  -45.7316   -5.0123  -26.1232 N   0  0  0  0  0  0  0  0  0  0  0  0
  -45.2164   -6.0158  -26.8871 C   0  0  0  0  0  0  0  0  0  0  0  0
  -45.8382   -7.1997  -27.3144 C   0  0  0  0  0  0  0  0  0  0  0  0
  -47.1142   -7.5882  -26.9593 O   0  0  0  0  0  0  0  0  0  0  0  0
  -47.9601   -6.5958  -26.3843 C   0  0  0  0  0  0  0  0  0  0  0  0
  -48.1857   -5.6408  -27.3236 F   0  0  0  0  0  0  0  0  0  0  0  0
  -49.1645   -7.2053  -26.1983 F   0  0  0  0  0  0  0  0  0  0  0  0
  -45.0723   -8.0588  -28.1158 C   0  0  0  0  0  0  0  0  0  0  0  0
  -45.8035   -9.5460  -28.7287 S   0  0  0  0  0  0  0  0  0  0  0  0
  -47.3663   -9.1226  -29.1845 N   0  0  0  0  0  0  0  0  0  0  0  0
  -45.1421   -9.8868  -29.9620 O   0  0  0  0  0  0  0  0  0  0  0  0
  -45.9553  -10.4777  -27.6355 O   0  0  0  0  0  0  0  0  0  0  0  0
  -43.7381   -7.7651  -28.4614 C   0  0  0  0  0  0  0  0  0  0  0  0
  -43.1102   -6.6016  -27.9998 C   0  0  0  0  0  0  0  0  0  0  0  0
  -43.8948   -5.7457  -27.2234 C   0  0  0  0  0  0  0  0  0  0  0  0
  -43.6513   -4.5096  -26.6700 N   0  0  0  0  0  0  0  0  0  0  0  0
  1  2  1  0
  2  3  2  0
  2  4  2  0
  2  5  1  0
  5  6  1  0
  6  7  2  0
  7  8  1  0
  8  9  2  0
  9 10  1  0
 10 11  1  0
 11 12  1  0
 11 13  1  0
  9 14  1  0
 14 15  1  0
 15 16  1  0
 15 17  2  0
 15 18  2  0
 14 19  2  0
 19 20  1  0
 20 21  2  0
 21 22  1  0
 22  6  1  0
 21  8  1  0
M  END
>  <original SMILES>  (19) 
CS(=O)(=O)Cc1nc2c(OC(F)F)c(S(N)(=O)=O)ccc2[nH]1

>  <ref_pdb>  (19) 
m0468a

>  <distance_score>  (19) 
0.978067

>  <fragmenstein_runtime>  (19) 
3.539047

>  <name>  (19) 
FARBPSSHOFKQSR-UHFFFAOYSA-N

>  <scratch_subdir>  (19) 
/opt/xchem-fragalysis-2/maxwin/BulkDock/SCRATCH/352917/C906-P40

>  <ref_mols>  (19) 
m0468a,m0533a

>  <HIPPO Compound ID>  (19) 
906

>  <energy_score>  (19) 
-69.708917

>  <alias>  (19) 
None

>  <original ID>  (19) 
FARBPSSHOFKQSR-UHFFFAOYSA-N

>  <SLURM_JOB_ID>  (19) 
352917

>  <HIPPO Pose ID>  (19) 
598

>  <fragmenstein_mode>  (19) 
expansion

>  <fragmenstein_outcome>  (19) 
acceptable

>  <score_inspiration>  (19) 
0.589123

>  <inchikey>  (19) 
FARBPSSHOFKQSR-UHFFFAOYSA-N

>  <csv_name>  (19) 
TRIM21_iter1_fstein_split1000_batch001.csv

>  <fragmenstein_error>  (19) 
None

>  <subsites>  (19) 
None

>  <tags>  (19) 
Fragmenstein placed

$$$$
605
     RDKit          3D

 19 20  0  0  0  0  0  0  0  0999 V2000
  -47.1729  -10.1803  -29.2454 C   0  0  0  0  0  0  0  0  0  0  0  0
  -45.9590   -9.5017  -28.6340 C   0  0  0  0  0  0  0  0  0  0  0  0
  -46.0462   -7.9499  -28.6064 C   0  0  1  0  0  0  0  0  0  0  0  0
  -47.2224   -7.4259  -27.8711 N   0  0  0  0  0  0  0  0  0  0  0  0
  -47.3879   -7.9775  -26.5263 C   0  0  0  0  0  0  0  0  0  0  0  0
  -44.7395   -7.2973  -28.1695 C   0  0  0  0  0  0  0  0  0  0  0  0
  -43.5157   -7.8270  -28.6492 C   0  0  0  0  0  0  0  0  0  0  0  0
  -42.2734   -7.3051  -28.3125 C   0  0  0  0  0  0  0  0  0  0  0  0
  -42.1762   -6.1622  -27.5420 C   0  0  0  0  0  0  0  0  0  0  0  0
  -43.3494   -5.6023  -27.0436 C   0  0  0  0  0  0  0  0  0  0  0  0
  -43.4757   -4.5209  -26.2345 N   0  0  0  0  0  0  0  0  0  0  0  0
  -44.7583   -4.3234  -26.0706 C   0  0  0  0  0  0  0  0  0  0  0  0
  -45.3156   -3.1252  -25.4090 C   0  0  0  0  0  0  0  0  0  0  0  0
  -45.3824   -3.3727  -23.6419 S   0  0  0  0  0  0  0  0  0  0  0  0
  -45.7040   -1.7311  -23.0567 C   0  0  0  0  0  0  0  0  0  0  0  0
  -44.0971   -3.7535  -23.0753 O   0  0  0  0  0  0  0  0  0  0  0  0
  -46.5624   -4.1629  -23.3496 O   0  0  0  0  0  0  0  0  0  0  0  0
  -45.4758   -5.3035  -26.7182 N   0  0  0  0  0  0  0  0  0  0  0  0
  -44.5872   -6.1499  -27.3575 C   0  0  0  0  0  0  0  0  0  0  0  0
  1  2  1  0
  3  2  1  1
  3  4  1  0
  4  5  1  0
  3  6  1  0
  6  7  2  0
  7  8  1  0
  8  9  2  0
  9 10  1  0
 10 11  1  0
 11 12  2  0
 12 13  1  0
 13 14  1  0
 14 15  1  0
 14 16  2  0
 14 17  2  0
 12 18  1  0
 18 19  1  0
 19  6  1  0
 19 10  2  0
M  END
>  <original SMILES>  (20) 
CC[C@@H](NC)c1cccc2nc(CS(C)(=O)=O)[nH]c12

>  <ref_pdb>  (20) 
m0468a

>  <distance_score>  (20) 
0.889317

>  <fragmenstein_runtime>  (20) 
4.083078

>  <name>  (20) 
QARWKWYEAJABJA-SNVBAGLBSA-N

>  <scratch_subdir>  (20) 
/opt/xchem-fragalysis-2/maxwin/BulkDock/SCRATCH/352917/C909-P40

>  <ref_mols>  (20) 
m0468a,m0597a

>  <HIPPO Compound ID>  (20) 
909

>  <energy_score>  (20) 
-43.088712

>  <alias>  (20) 
None

>  <original ID>  (20) 
QARWKWYEAJABJA-SNVBAGLBSA-N

>  <SLURM_JOB_ID>  (20) 
352917

>  <HIPPO Pose ID>  (20) 
605

>  <fragmenstein_mode>  (20) 
expansion

>  <fragmenstein_outcome>  (20) 
acceptable

>  <score_inspiration>  (20) 
0.672803

>  <inchikey>  (20) 
QARWKWYEAJABJA-SNVBAGLBSA-N

>  <csv_name>  (20) 
TRIM21_iter1_fstein_split1000_batch001.csv

>  <fragmenstein_error>  (20) 
None

>  <subsites>  (20) 
None

>  <tags>  (20) 
Fragmenstein placed

$$$$
757
     RDKit          3D

 20 21  0  0  0  0  0  0  0  0999 V2000
  -42.4651   -7.1766  -28.1817 C   0  0  0  0  0  0  0  0  0  0  0  0
  -43.5044   -6.8200  -29.2344 C   0  0  1  0  0  0  0  0  0  0  0  0
  -43.2033   -7.5329  -30.4267 O   0  0  0  0  0  0  0  0  0  0  0  0
  -44.9052   -7.0805  -28.7646 C   0  0  0  0  0  0  0  0  0  0  0  0
  -45.6215   -8.2935  -28.6863 C   0  0  0  0  0  0  0  0  0  0  0  0
  -46.8754   -8.0402  -28.1374 C   0  0  0  0  0  0  0  0  0  0  0  0
  -47.8898   -9.0589  -27.7751 C   0  0  0  0  0  0  0  0  0  0  0  0
  -48.3460   -8.8730  -26.5102 F   0  0  0  0  0  0  0  0  0  0  0  0
  -48.9649   -8.9928  -28.6027 F   0  0  0  0  0  0  0  0  0  0  0  0
  -46.9935   -6.6702  -27.9596 N   0  0  0  0  0  0  0  0  0  0  0  0
  -48.1220   -5.8407  -27.5226 C   0  0  1  0  0  0  0  0  0  0  0  0
  -48.0917   -4.6248  -28.3130 O   0  0  0  0  0  0  0  0  0  0  0  0
  -49.5575   -6.3476  -27.6900 C   0  0  0  0  0  0  0  0  0  0  0  0
  -50.3984   -5.3382  -26.9053 C   0  0  0  0  0  0  0  0  0  0  0  0
  -49.5061   -4.8436  -25.7656 C   0  0  0  0  0  0  0  0  0  0  0  0
  -48.1107   -5.4529  -26.0031 C   0  0  2  0  0  0  0  0  0  0  0  0
  -47.0954   -4.5058  -25.5176 N   0  0  0  0  0  0  0  0  0  0  0  0
  -45.7533   -6.1300  -28.2551 C   0  0  0  0  0  0  0  0  0  0  0  0
  -45.4638   -4.8468  -28.0031 N   0  0  0  0  0  0  0  0  0  0  0  0
  -44.3515   -4.6453  -27.2013 O   0  0  0  0  0  0  0  0  0  0  0  0
  2  1  1  1
  2  3  1  0
  2  4  1  0
  4  5  1  0
  5  6  2  0
  6  7  1  0
  7  8  1  0
  7  9  1  0
  6 10  1  0
 10 11  1  0
 11 12  1  6
 11 13  1  0
 13 14  1  0
 14 15  1  0
 15 16  1  0
 16 17  1  6
 10 18  1  0
 18 19  1  0
 19 20  1  0
 18  4  2  0
 16 11  1  0
M  END
>  <original SMILES>  (21) 
C[C@@H](O)c1cc(C(F)F)n([C@@]2(O)CCC[C@@H]2N)c1NO

>  <ref_pdb>  (21) 
m0469a

>  <distance_score>  (21) 
0.995285

>  <fragmenstein_runtime>  (21) 
2.128012

>  <name>  (21) 
VFMHPJRTFLLAQU-PUQNFTFYSA-N

>  <scratch_subdir>  (21) 
/opt/xchem-fragalysis-2/maxwin/BulkDock/SCRATCH/352917/C947-P41

>  <ref_mols>  (21) 
m0469a,m0501a

>  <HIPPO Compound ID>  (21) 
947

>  <energy_score>  (21) 
-44.90088

>  <alias>  (21) 
None

>  <original ID>  (21) 
VFMHPJRTFLLAQU-PUQNFTFYSA-N

>  <SLURM_JOB_ID>  (21) 
352917

>  <HIPPO Pose ID>  (21) 
757

>  <fragmenstein_mode>  (21) 
expansion

>  <fragmenstein_outcome>  (21) 
acceptable

>  <score_inspiration>  (21) 
0.504236

>  <inchikey>  (21) 
VFMHPJRTFLLAQU-PUQNFTFYSA-N

>  <csv_name>  (21) 
TRIM21_iter1_fstein_split1000_batch001.csv

>  <fragmenstein_error>  (21) 
None

>  <subsites>  (21) 
None

>  <tags>  (21) 
Fragmenstein placed

$$$$
758
     RDKit          3D

 20 21  0  0  0  0  0  0  0  0999 V2000
  -42.4172   -7.1055  -28.2216 C   0  0  0  0  0  0  0  0  0  0  0  0
  -43.4837   -6.7786  -29.2580 C   0  0  1  0  0  0  0  0  0  0  0  0
  -43.2437   -7.5665  -30.4176 O   0  0  0  0  0  0  0  0  0  0  0  0
  -44.8712   -6.9948  -28.7299 C   0  0  0  0  0  0  0  0  0  0  0  0
  -45.5461   -8.2127  -28.4955 C   0  0  0  0  0  0  0  0  0  0  0  0
  -46.7973   -7.9361  -27.9570 C   0  0  0  0  0  0  0  0  0  0  0  0
  -47.7775   -8.9424  -27.4816 C   0  0  0  0  0  0  0  0  0  0  0  0
  -48.1713   -8.6844  -26.2092 F   0  0  0  0  0  0  0  0  0  0  0  0
  -48.8933   -8.9400  -28.2562 F   0  0  0  0  0  0  0  0  0  0  0  0
  -46.9500   -6.5578  -27.9183 N   0  0  0  0  0  0  0  0  0  0  0  0
  -48.0725   -5.7229  -27.4750 C   0  0  1  0  0  0  0  0  0  0  0  0
  -48.1301   -4.5743  -28.3635 O   0  0  0  0  0  0  0  0  0  0  0  0
  -49.5022   -6.2720  -27.4885 C   0  0  0  0  0  0  0  0  0  0  0  0
  -50.3061   -5.2233  -26.7169 C   0  0  0  0  0  0  0  0  0  0  0  0
  -49.3407   -4.6227  -25.6929 C   0  0  0  0  0  0  0  0  0  0  0  0
  -47.9527   -5.2183  -25.9958 C   0  0  2  0  0  0  0  0  0  0  0  0
  -46.9212   -4.2169  -25.6801 N   0  0  0  0  0  0  0  0  0  0  0  0
  -45.7483   -6.0098  -28.3455 C   0  0  0  0  0  0  0  0  0  0  0  0
  -45.5247   -4.6844  -28.3209 N   0  0  0  0  0  0  0  0  0  0  0  0
  -44.3987   -4.3028  -27.6127 O   0  0  0  0  0  0  0  0  0  0  0  0
  2  1  1  1
  2  3  1  0
  2  4  1  0
  4  5  1  0
  5  6  2  0
  6  7  1  0
  7  8  1  0
  7  9  1  0
  6 10  1  0
 10 11  1  0
 11 12  1  6
 11 13  1  0
 13 14  1  0
 14 15  1  0
 15 16  1  0
 16 17  1  6
 10 18  1  0
 18 19  1  0
 19 20  1  0
 18  4  2  0
 16 11  1  0
M  END
>  <original SMILES>  (22) 
C[C@@H](O)c1cc(C(F)F)n([C@@]2(O)CCC[C@@H]2N)c1NO

>  <ref_pdb>  (22) 
m0501a

>  <distance_score>  (22) 
0.987777

>  <fragmenstein_runtime>  (22) 
2.110643

>  <name>  (22) 
VFMHPJRTFLLAQU-PUQNFTFYSA-N

>  <scratch_subdir>  (22) 
/opt/xchem-fragalysis-2/maxwin/BulkDock/SCRATCH/352917/C947-P46

>  <ref_mols>  (22) 
m0469a,m0501a

>  <HIPPO Compound ID>  (22) 
947

>  <energy_score>  (22) 
-47.044608

>  <alias>  (22) 
None

>  <original ID>  (22) 
VFMHPJRTFLLAQU-PUQNFTFYSA-N

>  <SLURM_JOB_ID>  (22) 
352917

>  <HIPPO Pose ID>  (22) 
758

>  <fragmenstein_mode>  (22) 
expansion

>  <fragmenstein_outcome>  (22) 
acceptable

>  <score_inspiration>  (22) 
0.512448

>  <inchikey>  (22) 
VFMHPJRTFLLAQU-PUQNFTFYSA-N

>  <csv_name>  (22) 
TRIM21_iter1_fstein_split1000_batch001.csv

>  <fragmenstein_error>  (22) 
None

>  <subsites>  (22) 
None

>  <tags>  (22) 
Fragmenstein placed

$$$$
807
     RDKit          3D

 17 18  0  0  0  0  0  0  0  0999 V2000
  -47.1902   -5.2206  -25.7016 C   0  0  0  0  0  0  0  0  0  0  0  0
  -45.8657   -4.8370  -26.3197 C   0  0  2  0  0  0  0  0  0  0  0  0
  -45.1587   -3.7273  -25.5986 N   0  0  0  0  0  0  0  0  0  0  0  0
  -45.2967   -3.3287  -24.0014 S   0  0  0  0  0  0  0  0  0  0  0  0
  -44.6914   -4.7907  -23.2473 C   0  0  0  0  0  0  0  0  0  0  0  0
  -46.6856   -3.1740  -23.6469 O   0  0  0  0  0  0  0  0  0  0  0  0
  -44.3311   -2.2925  -23.7039 O   0  0  0  0  0  0  0  0  0  0  0  0
  -46.1356   -4.3147  -27.7298 C   0  0  0  0  0  0  0  0  0  0  0  0
  -44.8388   -4.2540  -28.3705 O   0  0  0  0  0  0  0  0  0  0  0  0
  -44.2203   -5.3722  -27.8820 C   0  0  0  0  0  0  0  0  0  0  0  0
  -43.1544   -5.9805  -28.5069 C   0  0  0  0  0  0  0  0  0  0  0  0
  -42.8727   -7.2666  -28.1011 C   0  0  0  0  0  0  0  0  0  0  0  0
  -41.8798   -7.9551  -28.6682 F   0  0  0  0  0  0  0  0  0  0  0  0
  -43.6818   -7.9105  -27.1717 C   0  0  0  0  0  0  0  0  0  0  0  0
  -44.7194   -7.2305  -26.5283 C   0  0  0  0  0  0  0  0  0  0  0  0
  -45.8251   -8.1569  -25.6147 Cl  0  0  0  0  0  0  0  0  0  0  0  0
  -44.9125   -5.8972  -26.7922 C   0  0  0  0  0  0  0  0  0  0  0  0
  2  1  1  1
  2  3  1  0
  3  4  1  0
  4  5  1  0
  4  6  2  0
  4  7  2  0
  2  8  1  0
  8  9  1  0
  9 10  1  0
 10 11  2  0
 11 12  1  0
 12 13  1  0
 12 14  2  0
 14 15  1  0
 15 16  1  0
 15 17  2  0
 17  2  1  0
 17 10  1  0
M  END
>  <original SMILES>  (23) 
C[C@]1(NS(C)(=O)=O)COc2cc(F)cc(Cl)c21

>  <ref_pdb>  (23) 
m0269a

>  <distance_score>  (23) 
0.780131

>  <fragmenstein_runtime>  (23) 
3.638423

>  <name>  (23) 
UXQMDXJCVXJPLM-JTQLQIEISA-N

>  <scratch_subdir>  (23) 
/opt/xchem-fragalysis-2/maxwin/BulkDock/SCRATCH/352918/C389-P22

>  <ref_mols>  (23) 
m0269a,m0718a

>  <HIPPO Compound ID>  (23) 
389

>  <energy_score>  (23) 
-29.395483

>  <alias>  (23) 
None

>  <original ID>  (23) 
UXQMDXJCVXJPLM-JTQLQIEISA-N

>  <SLURM_JOB_ID>  (23) 
352918

>  <HIPPO Pose ID>  (23) 
807

>  <fragmenstein_mode>  (23) 
expansion

>  <fragmenstein_outcome>  (23) 
acceptable

>  <score_inspiration>  (23) 
0.653791

>  <inchikey>  (23) 
UXQMDXJCVXJPLM-JTQLQIEISA-N

>  <csv_name>  (23) 
TRIM21_iter1_fstein_split1000_batch002.csv

>  <fragmenstein_error>  (23) 
None

>  <subsites>  (23) 
None

>  <tags>  (23) 
Fragmenstein placed

$$$$
883
     RDKit          3D

 18 19  0  0  0  0  0  0  0  0999 V2000
  -44.1111   -2.5547  -23.7483 C   0  0  0  0  0  0  0  0  0  0  0  0
  -45.8139   -2.1908  -23.4971 S   0  0  0  0  0  0  0  0  0  0  0  0
  -46.2645   -2.9659  -22.3643 O   0  0  0  0  0  0  0  0  0  0  0  0
  -45.9256   -0.7514  -23.5567 O   0  0  0  0  0  0  0  0  0  0  0  0
  -46.5245   -2.7795  -24.9168 N   0  0  0  0  0  0  0  0  0  0  0  0
  -46.1080   -4.1405  -25.1651 O   0  0  0  0  0  0  0  0  0  0  0  0
  -46.4876   -4.4951  -26.5056 C   0  0  2  0  0  0  0  0  0  0  0  0
  -48.0015   -4.6227  -26.6626 C   0  0  0  0  0  0  0  0  0  0  0  0
  -48.3739   -5.4741  -27.8739 C   0  0  0  0  0  0  0  0  0  0  0  0
  -47.3188   -5.4820  -28.8832 N   0  0  0  0  0  0  0  0  0  0  0  0
  -46.0689   -6.1256  -28.4124 C   0  0  2  0  0  0  0  0  0  0  0  0
  -44.9004   -5.5578  -29.2501 C   0  0  0  0  0  0  0  0  0  0  0  0
  -43.5975   -6.3316  -29.0961 C   0  0  0  0  0  0  0  0  0  0  0  0
  -43.7842   -7.8011  -29.4190 C   0  0  1  0  0  0  0  0  0  0  0  0
  -42.6283   -8.4483  -29.1140 F   0  0  0  0  0  0  0  0  0  0  0  0
  -44.9103   -8.4345  -28.6230 C   0  0  0  0  0  0  0  0  0  0  0  0
  -46.2080   -7.6415  -28.7031 C   0  0  0  0  0  0  0  0  0  0  0  0
  -45.8304   -5.8123  -26.9097 C   0  0  0  0  0  0  0  0  0  0  0  0
  1  2  1  0
  2  3  2  0
  2  4  2  0
  2  5  1  0
  5  6  1  0
  7  6  1  1
  7  8  1  0
  8  9  1  0
  9 10  1  0
 10 11  1  0
 11 12  1  6
 12 13  1  0
 13 14  1  0
 14 15  1  1
 14 16  1  0
 16 17  1  0
 11 18  1  0
 18  7  1  0
 17 11  1  0
M  END
>  <original SMILES>  (24) 
CS(=O)(=O)NO[C@@H]1CCN[C@]2(CC[C@H](F)CC2)C1

>  <ref_pdb>  (24) 
m0470a

>  <distance_score>  (24) 
0.923565

>  <fragmenstein_runtime>  (24) 
7.800534

>  <name>  (24) 
XVNRFSRFORWSAH-GMTAPVOTSA-N

>  <scratch_subdir>  (24) 
/opt/xchem-fragalysis-2/maxwin/BulkDock/SCRATCH/352917/C1013-P42

>  <ref_mols>  (24) 
m0470a,m0744a

>  <HIPPO Compound ID>  (24) 
1013

>  <energy_score>  (24) 
-32.64217

>  <alias>  (24) 
None

>  <original ID>  (24) 
XVNRFSRFORWSAH-GMTAPVOTSA-N

>  <SLURM_JOB_ID>  (24) 
352917

>  <HIPPO Pose ID>  (24) 
883

>  <fragmenstein_mode>  (24) 
expansion

>  <fragmenstein_outcome>  (24) 
acceptable

>  <score_inspiration>  (24) 
0.533083

>  <inchikey>  (24) 
XVNRFSRFORWSAH-GMTAPVOTSA-N

>  <csv_name>  (24) 
TRIM21_iter1_fstein_split1000_batch001.csv

>  <fragmenstein_error>  (24) 
None

>  <subsites>  (24) 
None

>  <tags>  (24) 
Fragmenstein placed

$$$$
1145
     RDKit          3D

 24 25  0  0  0  0  0  0  0  0999 V2000
  -46.6850   -8.9721  -29.3720 C   0  0  0  0  0  0  0  0  0  0  0  0
  -46.3456   -7.6294  -28.8398 C   0  0  0  0  0  0  0  0  0  0  0  0
  -45.2198   -6.8693  -29.0609 C   0  0  0  0  0  0  0  0  0  0  0  0
  -45.1923   -5.9081  -28.0280 C   0  0  0  0  0  0  0  0  0  0  0  0
  -46.4463   -5.8135  -27.4723 C   0  0  0  0  0  0  0  0  0  0  0  0
  -47.0294   -4.7065  -26.6354 C   0  0  0  0  0  0  0  0  0  0  0  0
  -46.4293   -4.4980  -25.2313 C   0  0  0  0  0  0  0  0  0  0  0  0
  -46.3660   -3.0388  -24.8589 N   0  0  0  0  0  0  0  0  0  0  0  0
  -47.6949   -2.3704  -24.9516 C   0  0  0  0  0  0  0  0  0  0  0  0
  -45.5262   -2.6612  -23.4153 S   0  0  0  0  0  0  0  0  0  0  0  0
  -44.9133   -1.0235  -23.7787 C   0  0  0  0  0  0  0  0  0  0  0  0
  -44.3682   -3.5236  -23.2630 O   0  0  0  0  0  0  0  0  0  0  0  0
  -46.5035   -2.5814  -22.3532 O   0  0  0  0  0  0  0  0  0  0  0  0
  -47.1133   -6.9502  -27.9011 N   0  0  0  0  0  0  0  0  0  0  0  0
  -48.3804   -7.4030  -27.3695 C   0  0  0  0  0  0  0  0  0  0  0  0
  -43.9031   -5.2532  -27.7091 C   0  0  0  0  0  0  0  0  0  0  0  0
  -42.6788   -6.2247  -27.9125 C   0  0  0  0  0  0  0  0  0  0  0  0
  -42.9428   -7.4598  -28.7841 C   0  0  0  0  0  0  0  0  0  0  0  0
  -43.9481   -7.0135  -29.8334 C   0  0  1  0  0  0  0  0  0  0  0  0
  -44.0435   -7.8373  -31.0081 N   0  0  0  0  0  0  0  0  0  0  0  0
  -44.1318   -7.0551  -32.4892 S   0  0  0  0  0  0  0  0  0  0  0  0
  -45.8564   -6.6374  -32.5531 C   0  0  0  0  0  0  0  0  0  0  0  0
  -43.8744   -8.0320  -33.5232 O   0  0  0  0  0  0  0  0  0  0  0  0
  -43.3599   -5.8369  -32.4214 O   0  0  0  0  0  0  0  0  0  0  0  0
  1  2  1  0
  2  3  2  0
  3  4  1  0
  4  5  2  0
  5  6  1  0
  6  7  1  0
  7  8  1  0
  8  9  1  0
  8 10  1  0
 10 11  1  0
 10 12  2  0
 10 13  2  0
  5 14  1  0
 14 15  1  0
  4 16  1  0
 16 17  1  0
 17 18  1  0
 18 19  1  0
 19 20  1  6
 20 21  1  0
 21 22  1  0
 21 23  2  0
 21 24  2  0
 14  2  1  0
 19  3  1  0
M  END
>  <original SMILES>  (25) 
Cc1c2c(c(CCN(C)S(C)(=O)=O)n1C)CCC[C@H]2NS(C)(=O)=O

>  <ref_pdb>  (25) 
m0733a

>  <distance_score>  (25) 
0.886095

>  <fragmenstein_runtime>  (25) 
5.440924

>  <name>  (25) 
LBMKUKSUMWANHG-CYBMUJFWSA-N

>  <scratch_subdir>  (25) 
/opt/xchem-fragalysis-2/maxwin/BulkDock/SCRATCH/352918/C503-P76

>  <ref_mols>  (25) 
m0470a,m0733a

>  <HIPPO Compound ID>  (25) 
503

>  <energy_score>  (25) 
-49.262569

>  <alias>  (25) 
None

>  <original ID>  (25) 
LBMKUKSUMWANHG-CYBMUJFWSA-N

>  <SLURM_JOB_ID>  (25) 
352918

>  <HIPPO Pose ID>  (25) 
1145

>  <fragmenstein_mode>  (25) 
expansion

>  <fragmenstein_outcome>  (25) 
acceptable

>  <score_inspiration>  (25) 
0.706949

>  <inchikey>  (25) 
LBMKUKSUMWANHG-CYBMUJFWSA-N

>  <csv_name>  (25) 
TRIM21_iter1_fstein_split1000_batch002.csv

>  <fragmenstein_error>  (25) 
None

>  <subsites>  (25) 
None

>  <tags>  (25) 
Fragmenstein placed

$$$$
1269
     RDKit          3D

 19 20  0  0  0  0  0  0  0  0999 V2000
  -44.0370   -3.6312  -23.2843 O   0  0  0  0  0  0  0  0  0  0  0  0
  -45.3181   -2.9489  -23.3659 S   0  0  0  0  0  0  0  0  0  0  0  0
  -45.6432   -1.9590  -22.3615 O   0  0  0  0  0  0  0  0  0  0  0  0
  -45.5984   -2.2349  -24.9514 C   0  0  0  0  0  0  0  0  0  0  0  0
  -45.7915   -3.2721  -26.0403 C   0  0  0  0  0  0  0  0  0  0  0  0
  -46.6325   -4.4251  -25.7583 N   0  0  0  0  0  0  0  0  0  0  0  0
  -46.7880   -5.3287  -26.9214 C   0  0  0  0  0  0  0  0  0  0  0  0
  -45.6065   -6.1258  -27.4654 C   0  0  0  0  0  0  0  0  0  0  0  0
  -44.2965   -6.0147  -26.9813 C   0  0  0  0  0  0  0  0  0  0  0  0
  -43.2336   -6.6987  -27.5660 C   0  0  0  0  0  0  0  0  0  0  0  0
  -43.4688   -7.5845  -28.5968 C   0  0  0  0  0  0  0  0  0  0  0  0
  -44.7589   -7.7336  -29.0941 C   0  0  0  0  0  0  0  0  0  0  0  0
  -45.8241   -7.0006  -28.5539 C   0  0  0  0  0  0  0  0  0  0  0  0
  -47.1197   -7.0757  -28.9984 O   0  0  0  0  0  0  0  0  0  0  0  0
  -47.4185   -7.8870  -30.1258 C   0  0  0  0  0  0  0  0  0  0  0  0
  -47.1250   -9.1824  -29.8610 F   0  0  0  0  0  0  0  0  0  0  0  0
  -46.6963   -7.4884  -31.1990 F   0  0  0  0  0  0  0  0  0  0  0  0
  -46.4247   -5.1157  -24.5016 C   0  0  0  0  0  0  0  0  0  0  0  0
  -46.5509   -4.1849  -23.3161 C   0  0  0  0  0  0  0  0  0  0  0  0
  1  2  2  0
  2  3  2  0
  2  4  1  0
  4  5  1  0
  5  6  1  0
  6  7  1  0
  7  8  1  0
  8  9  2  0
  9 10  1  0
 10 11  2  0
 11 12  1  0
 12 13  2  0
 13 14  1  0
 14 15  1  0
 15 16  1  0
 15 17  1  0
  6 18  1  0
 18 19  1  0
 19  2  1  0
 13  8  1  0
M  END
>  <original SMILES>  (26) 
O=S1(=O)CCN(Cc2ccccc2OC(F)F)CC1

>  <ref_pdb>  (26) 
m0243a

>  <distance_score>  (26) 
0.868466

>  <fragmenstein_runtime>  (26) 
2.895072

>  <name>  (26) 
HLYZPXNASKKFEE-UHFFFAOYSA-N

>  <scratch_subdir>  (26) 
/opt/xchem-fragalysis-2/maxwin/BulkDock/SCRATCH/352918/C576-P19

>  <ref_mols>  (26) 
m0243a,m0744a

>  <HIPPO Compound ID>  (26) 
576

>  <energy_score>  (26) 
-40.827528

>  <alias>  (26) 
None

>  <original ID>  (26) 
HLYZPXNASKKFEE-UHFFFAOYSA-N

>  <SLURM_JOB_ID>  (26) 
352918

>  <HIPPO Pose ID>  (26) 
1269

>  <fragmenstein_mode>  (26) 
expansion

>  <fragmenstein_outcome>  (26) 
acceptable

>  <score_inspiration>  (26) 
0.727518

>  <inchikey>  (26) 
HLYZPXNASKKFEE-UHFFFAOYSA-N

>  <csv_name>  (26) 
TRIM21_iter1_fstein_split1000_batch002.csv

>  <fragmenstein_error>  (26) 
None

>  <subsites>  (26) 
None

>  <tags>  (26) 
Fragmenstein placed

$$$$
1270
     RDKit          3D

 19 20  0  0  0  0  0  0  0  0999 V2000
  -44.3089   -3.7430  -22.9676 O   0  0  0  0  0  0  0  0  0  0  0  0
  -45.4048   -2.8733  -23.3629 S   0  0  0  0  0  0  0  0  0  0  0  0
  -45.6867   -1.7027  -22.5594 O   0  0  0  0  0  0  0  0  0  0  0  0
  -45.1574   -2.3578  -25.0166 C   0  0  0  0  0  0  0  0  0  0  0  0
  -45.2662   -3.5544  -25.9391 C   0  0  0  0  0  0  0  0  0  0  0  0
  -46.6036   -4.1324  -25.9372 N   0  0  0  0  0  0  0  0  0  0  0  0
  -46.9301   -4.9177  -27.1504 C   0  0  0  0  0  0  0  0  0  0  0  0
  -45.9084   -5.8904  -27.7223 C   0  0  0  0  0  0  0  0  0  0  0  0
  -44.8195   -5.3906  -28.4623 C   0  0  0  0  0  0  0  0  0  0  0  0
  -43.8446   -6.2195  -29.0086 C   0  0  0  0  0  0  0  0  0  0  0  0
  -43.9622   -7.5901  -28.8636 C   0  0  0  0  0  0  0  0  0  0  0  0
  -45.0712   -8.1210  -28.1987 C   0  0  0  0  0  0  0  0  0  0  0  0
  -46.0448   -7.2826  -27.6229 C   0  0  0  0  0  0  0  0  0  0  0  0
  -47.1367   -7.7242  -26.9248 O   0  0  0  0  0  0  0  0  0  0  0  0
  -47.4160   -9.1109  -26.9584 C   0  0  0  0  0  0  0  0  0  0  0  0
  -48.6583   -9.2854  -26.4382 F   0  0  0  0  0  0  0  0  0  0  0  0
  -46.5607   -9.7543  -26.1258 F   0  0  0  0  0  0  0  0  0  0  0  0
  -46.8723   -4.8121  -24.6718 C   0  0  0  0  0  0  0  0  0  0  0  0
  -46.8878   -3.8119  -23.5186 C   0  0  0  0  0  0  0  0  0  0  0  0
  1  2  2  0
  2  3  2  0
  2  4  1  0
  4  5  1  0
  5  6  1  0
  6  7  1  0
  7  8  1  0
  8  9  2  0
  9 10  1  0
 10 11  2  0
 11 12  1  0
 12 13  2  0
 13 14  1  0
 14 15  1  0
 15 16  1  0
 15 17  1  0
  6 18  1  0
 18 19  1  0
 19  2  1  0
 13  8  1  0
M  END
>  <original SMILES>  (27) 
O=S1(=O)CCN(Cc2ccccc2OC(F)F)CC1

>  <ref_pdb>  (27) 
m0744a

>  <distance_score>  (27) 
0.893753

>  <fragmenstein_runtime>  (27) 
2.891433

>  <name>  (27) 
HLYZPXNASKKFEE-UHFFFAOYSA-N

>  <scratch_subdir>  (27) 
/opt/xchem-fragalysis-2/maxwin/BulkDock/SCRATCH/352918/C576-P78

>  <ref_mols>  (27) 
m0243a,m0744a

>  <HIPPO Compound ID>  (27) 
576

>  <energy_score>  (27) 
-44.935802

>  <alias>  (27) 
None

>  <original ID>  (27) 
HLYZPXNASKKFEE-UHFFFAOYSA-N

>  <SLURM_JOB_ID>  (27) 
352918

>  <HIPPO Pose ID>  (27) 
1270

>  <fragmenstein_mode>  (27) 
expansion

>  <fragmenstein_outcome>  (27) 
acceptable

>  <score_inspiration>  (27) 
0.767911

>  <inchikey>  (27) 
HLYZPXNASKKFEE-UHFFFAOYSA-N

>  <csv_name>  (27) 
TRIM21_iter1_fstein_split1000_batch002.csv

>  <fragmenstein_error>  (27) 
None

>  <subsites>  (27) 
None

>  <tags>  (27) 
Fragmenstein placed

$$$$
1294
     RDKit          3D

 23 24  0  0  0  0  0  0  0  0999 V2000
  -49.4939  -10.4017  -32.7573 C   0  0  0  0  0  0  0  0  0  0  0  0
  -48.4251  -11.0664  -32.0265 N   0  0  0  0  0  0  0  0  0  0  0  0
  -47.1854  -11.1251  -32.8089 C   0  0  0  0  0  0  0  0  0  0  0  0
  -46.0864  -11.8827  -32.0441 C   0  0  0  0  0  0  0  0  0  0  0  0
  -46.0521  -11.6373  -30.6271 O   0  0  0  0  0  0  0  0  0  0  0  0
  -46.6904  -10.3961  -30.2941 C   0  0  2  0  0  0  0  0  0  0  0  0
  -46.5457  -10.1451  -28.7812 C   0  0  0  0  0  0  0  0  0  0  0  0
  -45.2064   -9.6960  -28.4210 N   0  0  0  0  0  0  0  0  0  0  0  0
  -44.7819   -8.4827  -28.8030 C   0  0  0  0  0  0  0  0  0  0  0  0
  -45.5889   -7.5903  -29.3038 N   0  0  0  0  0  0  0  0  0  0  0  0
  -44.9524   -6.3786  -29.4009 C   0  0  0  0  0  0  0  0  0  0  0  0
  -45.7847   -5.2252  -29.6182 C   0  0  0  0  0  0  0  0  0  0  0  0
  -46.3388   -5.0162  -30.6976 O   0  0  0  0  0  0  0  0  0  0  0  0
  -46.0071   -4.3802  -28.3904 C   0  0  0  0  0  0  0  0  0  0  0  0
  -46.3988   -5.1359  -27.1737 N   0  0  0  0  0  0  0  0  0  0  0  0
  -45.6872   -4.6211  -25.9919 C   0  0  0  0  0  0  0  0  0  0  0  0
  -48.0767   -5.3013  -26.9631 S   0  0  0  0  0  0  0  0  0  0  0  0
  -48.5576   -6.2794  -28.3676 C   0  0  0  0  0  0  0  0  0  0  0  0
  -48.3004   -6.0996  -25.7798 O   0  0  0  0  0  0  0  0  0  0  0  0
  -48.6732   -3.9874  -27.0857 O   0  0  0  0  0  0  0  0  0  0  0  0
  -43.6043   -6.3804  -29.1155 C   0  0  0  0  0  0  0  0  0  0  0  0
  -43.1526   -7.9629  -28.6409 S   0  0  0  0  0  0  0  0  0  0  0  0
  -48.1832  -10.4486  -30.7042 C   0  0  0  0  0  0  0  0  0  0  0  0
  1  2  1  0
  2  3  1  0
  3  4  1  0
  4  5  1  0
  5  6  1  0
  6  7  1  1
  7  8  1  0
  8  9  1  0
  9 10  2  0
 10 11  1  0
 11 12  1  0
 12 13  2  0
 12 14  1  0
 14 15  1  0
 15 16  1  0
 15 17  1  0
 17 18  1  0
 17 19  2  0
 17 20  2  0
 11 21  2  0
 21 22  1  0
  6 23  1  0
 23  2  1  0
 22  9  1  0
M  END
>  <original SMILES>  (28) 
CN1CCO[C@H](CNc2nc(C(=O)CN(C)S(C)(=O)=O)cs2)C1

>  <ref_pdb>  (28) 
m0219a

>  <distance_score>  (28) 
0.843566

>  <fragmenstein_runtime>  (28) 
2.086

>  <name>  (28) 
VEHFTRSAGRKSTG-SNVBAGLBSA-N

>  <scratch_subdir>  (28) 
/opt/xchem-fragalysis-2/maxwin/BulkDock/SCRATCH/352917/C1216-P16

>  <ref_mols>  (28) 
m0219a,m0533a

>  <HIPPO Compound ID>  (28) 
1216

>  <energy_score>  (28) 
-90.568638

>  <alias>  (28) 
None

>  <original ID>  (28) 
VEHFTRSAGRKSTG-SNVBAGLBSA-N

>  <SLURM_JOB_ID>  (28) 
352917

>  <HIPPO Pose ID>  (28) 
1294

>  <fragmenstein_mode>  (28) 
expansion

>  <fragmenstein_outcome>  (28) 
acceptable

>  <score_inspiration>  (28) 
0.597528

>  <inchikey>  (28) 
VEHFTRSAGRKSTG-SNVBAGLBSA-N

>  <csv_name>  (28) 
TRIM21_iter1_fstein_split1000_batch001.csv

>  <fragmenstein_error>  (28) 
None

>  <subsites>  (28) 
None

>  <tags>  (28) 
Fragmenstein placed

$$$$
1296
     RDKit          3D

 23 24  0  0  0  0  0  0  0  0999 V2000
  -49.5593  -10.4004  -32.7129 C   0  0  0  0  0  0  0  0  0  0  0  0
  -48.4542  -11.0512  -32.0252 N   0  0  0  0  0  0  0  0  0  0  0  0
  -47.2268  -11.0280  -32.8294 C   0  0  0  0  0  0  0  0  0  0  0  0
  -46.0860  -11.7712  -32.1144 C   0  0  0  0  0  0  0  0  0  0  0  0
  -46.0406  -11.5862  -30.6880 O   0  0  0  0  0  0  0  0  0  0  0  0
  -46.7165  -10.3836  -30.2958 C   0  0  2  0  0  0  0  0  0  0  0  0
  -46.5495  -10.1823  -28.7770 C   0  0  0  0  0  0  0  0  0  0  0  0
  -45.2154   -9.7112  -28.4216 N   0  0  0  0  0  0  0  0  0  0  0  0
  -44.8070   -8.5004  -28.8291 C   0  0  0  0  0  0  0  0  0  0  0  0
  -45.6512   -7.6161  -29.2752 N   0  0  0  0  0  0  0  0  0  0  0  0
  -45.0278   -6.4107  -29.4462 C   0  0  0  0  0  0  0  0  0  0  0  0
  -45.8925   -5.2818  -29.6368 C   0  0  0  0  0  0  0  0  0  0  0  0
  -46.4329   -5.0475  -30.7179 O   0  0  0  0  0  0  0  0  0  0  0  0
  -46.1644   -4.4943  -28.3842 C   0  0  0  0  0  0  0  0  0  0  0  0
  -46.5382   -5.2608  -27.1721 N   0  0  0  0  0  0  0  0  0  0  0  0
  -45.8772   -4.6969  -25.9835 C   0  0  0  0  0  0  0  0  0  0  0  0
  -48.2122   -5.4812  -26.9792 S   0  0  0  0  0  0  0  0  0  0  0  0
  -48.6567   -6.4295  -28.4146 C   0  0  0  0  0  0  0  0  0  0  0  0
  -48.4215   -6.3145  -25.8171 O   0  0  0  0  0  0  0  0  0  0  0  0
  -48.8418   -4.1797  -27.0712 O   0  0  0  0  0  0  0  0  0  0  0  0
  -43.6625   -6.4006  -29.2634 C   0  0  0  0  0  0  0  0  0  0  0  0
  -43.1705   -7.9721  -28.7876 S   0  0  0  0  0  0  0  0  0  0  0  0
  -48.2132  -10.4765  -30.6829 C   0  0  0  0  0  0  0  0  0  0  0  0
  1  2  1  0
  2  3  1  0
  3  4  1  0
  4  5  1  0
  5  6  1  0
  6  7  1  1
  7  8  1  0
  8  9  1  0
  9 10  2  0
 10 11  1  0
 11 12  1  0
 12 13  2  0
 12 14  1  0
 14 15  1  0
 15 16  1  0
 15 17  1  0
 17 18  1  0
 17 19  2  0
 17 20  2  0
 11 21  2  0
 21 22  1  0
  6 23  1  0
 23  2  1  0
 22  9  1  0
M  END
>  <original SMILES>  (29) 
CN1CCO[C@H](CNc2nc(C(=O)CN(C)S(C)(=O)=O)cs2)C1

>  <ref_pdb>  (29) 
m0533a

>  <distance_score>  (29) 
0.894514

>  <fragmenstein_runtime>  (29) 
2.091389

>  <name>  (29) 
VEHFTRSAGRKSTG-SNVBAGLBSA-N

>  <scratch_subdir>  (29) 
/opt/xchem-fragalysis-2/maxwin/BulkDock/SCRATCH/352917/C1216-P49

>  <ref_mols>  (29) 
m0219a,m0533a

>  <HIPPO Compound ID>  (29) 
1216

>  <energy_score>  (29) 
-88.955383

>  <alias>  (29) 
None

>  <original ID>  (29) 
VEHFTRSAGRKSTG-SNVBAGLBSA-N

>  <SLURM_JOB_ID>  (29) 
352917

>  <HIPPO Pose ID>  (29) 
1296

>  <fragmenstein_mode>  (29) 
expansion

>  <fragmenstein_outcome>  (29) 
acceptable

>  <score_inspiration>  (29) 
0.589542

>  <inchikey>  (29) 
VEHFTRSAGRKSTG-SNVBAGLBSA-N

>  <csv_name>  (29) 
TRIM21_iter1_fstein_split1000_batch001.csv

>  <fragmenstein_error>  (29) 
None

>  <subsites>  (29) 
None

>  <tags>  (29) 
Fragmenstein placed

$$$$
1304
     RDKit          3D

 22 24  0  0  0  0  0  0  0  0999 V2000
  -45.3324   -2.9514  -24.2613 C   0  0  0  0  0  0  0  0  0  0  0  0
  -46.0162   -3.9427  -25.1199 C   0  0  0  0  0  0  0  0  0  0  0  0
  -45.9839   -4.0671  -26.5236 C   0  0  0  0  0  0  0  0  0  0  0  0
  -46.8316   -5.1098  -26.8105 C   0  0  0  0  0  0  0  0  0  0  0  0
  -47.3587   -5.7557  -28.0611 C   0  0  1  0  0  0  0  0  0  0  0  0
  -48.2272   -4.8683  -28.9718 C   0  0  0  0  0  0  0  0  0  0  0  0
  -48.1749   -4.9941  -30.3775 C   0  0  0  0  0  0  0  0  0  0  0  0
  -49.0360   -4.2765  -31.2145 C   0  0  0  0  0  0  0  0  0  0  0  0
  -49.9793   -3.4146  -30.6680 C   0  0  0  0  0  0  0  0  0  0  0  0
  -50.0753   -3.2865  -29.2855 C   0  0  0  0  0  0  0  0  0  0  0  0
  -49.2218   -4.0196  -28.4537 C   0  0  0  0  0  0  0  0  0  0  0  0
  -49.3952   -3.9341  -27.1019 O   0  0  0  0  0  0  0  0  0  0  0  0
  -46.3430   -6.5411  -28.8143 N   0  0  0  0  0  0  0  0  0  0  0  0
  -46.1222   -7.8594  -28.2161 C   0  0  0  0  0  0  0  0  0  0  0  0
  -45.2868   -8.7300  -29.1444 C   0  0  0  0  0  0  0  0  0  0  0  0
  -45.4088   -9.9528  -29.1616 O   0  0  0  0  0  0  0  0  0  0  0  0
  -44.3654   -8.0947  -29.9352 N   0  0  0  0  0  0  0  0  0  0  0  0
  -44.2194   -6.7342  -30.0528 C   0  0  0  0  0  0  0  0  0  0  0  0
  -43.4063   -6.2746  -30.8514 O   0  0  0  0  0  0  0  0  0  0  0  0
  -45.0644   -5.8695  -29.1039 C   0  0  0  0  0  0  0  0  0  0  0  0
  -47.2903   -5.6242  -25.6306 O   0  0  0  0  0  0  0  0  0  0  0  0
  -46.7815   -4.8911  -24.5727 N   0  0  0  0  0  0  0  0  0  0  0  0
  1  2  1  0
  2  3  1  0
  3  4  2  0
  4  5  1  0
  5  6  1  0
  6  7  2  0
  7  8  1  0
  8  9  2  0
  9 10  1  0
 10 11  2  0
 11 12  1  0
  5 13  1  6
 13 14  1  0
 14 15  1  0
 15 16  2  0
 15 17  1  0
 17 18  1  0
 18 19  2  0
 18 20  1  0
  4 21  1  0
 21 22  1  0
 22  2  2  0
 11  6  1  0
 20 13  1  0
M  END
>  <original SMILES>  (30) 
Cc1cc([C@@H](c2ccccc2O)N2CC(=O)NC(=O)C2)on1

>  <ref_pdb>  (30) 
m0597a

>  <distance_score>  (30) 
0.854555

>  <fragmenstein_runtime>  (30) 
2.44597

>  <name>  (30) 
BHEHZERXEDPFLA-OAHLLOKOSA-N

>  <scratch_subdir>  (30) 
/opt/xchem-fragalysis-2/maxwin/BulkDock/SCRATCH/352918/C594-P56

>  <ref_mols>  (30) 
m0597a,m0744a

>  <HIPPO Compound ID>  (30) 
594

>  <energy_score>  (30) 
-57.041009

>  <alias>  (30) 
None

>  <original ID>  (30) 
BHEHZERXEDPFLA-OAHLLOKOSA-N

>  <SLURM_JOB_ID>  (30) 
352918

>  <HIPPO Pose ID>  (30) 
1304

>  <fragmenstein_mode>  (30) 
expansion

>  <fragmenstein_outcome>  (30) 
acceptable

>  <score_inspiration>  (30) 
0.416914

>  <inchikey>  (30) 
BHEHZERXEDPFLA-OAHLLOKOSA-N

>  <csv_name>  (30) 
TRIM21_iter1_fstein_split1000_batch002.csv

>  <fragmenstein_error>  (30) 
None

>  <subsites>  (30) 
None

>  <tags>  (30) 
Fragmenstein placed

$$$$
1305
     RDKit          3D

 22 24  0  0  0  0  0  0  0  0999 V2000
  -46.2605   -2.4143  -24.0905 C   0  0  0  0  0  0  0  0  0  0  0  0
  -46.5148   -3.5841  -24.9592 C   0  0  0  0  0  0  0  0  0  0  0  0
  -47.0818   -3.6152  -26.2469 C   0  0  0  0  0  0  0  0  0  0  0  0
  -47.1042   -4.9431  -26.6010 C   0  0  0  0  0  0  0  0  0  0  0  0
  -47.5961   -5.7260  -27.7882 C   0  0  1  0  0  0  0  0  0  0  0  0
  -48.6258   -4.9934  -28.6633 C   0  0  0  0  0  0  0  0  0  0  0  0
  -48.4529   -4.8169  -30.0493 C   0  0  0  0  0  0  0  0  0  0  0  0
  -49.4216   -4.1787  -30.8310 C   0  0  0  0  0  0  0  0  0  0  0  0
  -50.5917   -3.7065  -30.2471 C   0  0  0  0  0  0  0  0  0  0  0  0
  -50.8056   -3.8912  -28.8845 C   0  0  0  0  0  0  0  0  0  0  0  0
  -49.8386   -4.5396  -28.1115 C   0  0  0  0  0  0  0  0  0  0  0  0
  -50.0884   -4.7602  -26.7846 O   0  0  0  0  0  0  0  0  0  0  0  0
  -46.5149   -6.3640  -28.5781 N   0  0  0  0  0  0  0  0  0  0  0  0
  -46.1912   -7.7165  -28.1056 C   0  0  0  0  0  0  0  0  0  0  0  0
  -45.0861   -8.3574  -28.9603 C   0  0  0  0  0  0  0  0  0  0  0  0
  -45.1434   -9.5361  -29.2968 O   0  0  0  0  0  0  0  0  0  0  0  0
  -44.0170   -7.5385  -29.2494 N   0  0  0  0  0  0  0  0  0  0  0  0
  -44.4376   -6.3495  -29.8054 C   0  0  0  0  0  0  0  0  0  0  0  0
  -44.2204   -6.0277  -30.9669 O   0  0  0  0  0  0  0  0  0  0  0  0
  -45.3237   -5.5461  -28.8411 C   0  0  0  0  0  0  0  0  0  0  0  0
  -46.6013   -5.6687  -25.5611 O   0  0  0  0  0  0  0  0  0  0  0  0
  -46.2078   -4.8155  -24.5436 N   0  0  0  0  0  0  0  0  0  0  0  0
  1  2  1  0
  2  3  1  0
  3  4  2  0
  4  5  1  0
  5  6  1  0
  6  7  2  0
  7  8  1  0
  8  9  2  0
  9 10  1  0
 10 11  2  0
 11 12  1  0
  5 13  1  6
 13 14  1  0
 14 15  1  0
 15 16  2  0
 15 17  1  0
 17 18  1  0
 18 19  2  0
 18 20  1  0
  4 21  1  0
 21 22  1  0
 22  2  2  0
 11  6  1  0
 20 13  1  0
M  END
>  <original SMILES>  (31) 
Cc1cc([C@@H](c2ccccc2O)N2CC(=O)NC(=O)C2)on1

>  <ref_pdb>  (31) 
m0744a

>  <distance_score>  (31) 
0.733033

>  <fragmenstein_runtime>  (31) 
2.507802

>  <name>  (31) 
BHEHZERXEDPFLA-OAHLLOKOSA-N

>  <scratch_subdir>  (31) 
/opt/xchem-fragalysis-2/maxwin/BulkDock/SCRATCH/352918/C594-P78

>  <ref_mols>  (31) 
m0597a,m0744a

>  <HIPPO Compound ID>  (31) 
594

>  <energy_score>  (31) 
-32.735274

>  <alias>  (31) 
None

>  <original ID>  (31) 
BHEHZERXEDPFLA-OAHLLOKOSA-N

>  <SLURM_JOB_ID>  (31) 
352918

>  <HIPPO Pose ID>  (31) 
1305

>  <fragmenstein_mode>  (31) 
expansion

>  <fragmenstein_outcome>  (31) 
acceptable

>  <score_inspiration>  (31) 
0.422474

>  <inchikey>  (31) 
BHEHZERXEDPFLA-OAHLLOKOSA-N

>  <csv_name>  (31) 
TRIM21_iter1_fstein_split1000_batch002.csv

>  <fragmenstein_error>  (31) 
None

>  <subsites>  (31) 
None

>  <tags>  (31) 
Fragmenstein placed

$$$$
1310
     RDKit          3D

 19 20  0  0  0  0  0  0  0  0999 V2000
  -47.3057   -5.0502  -26.1370 C   0  0  0  0  0  0  0  0  0  0  0  0
  -47.9202   -6.1229  -27.0263 C   0  0  0  0  0  0  0  0  0  0  0  0
  -47.4479   -5.9935  -28.4840 C   0  0  2  0  0  0  0  0  0  0  0  0
  -48.2564   -6.8061  -29.4204 N   0  0  0  0  0  0  0  0  0  0  0  0
  -49.5777   -6.2391  -29.6593 C   0  0  0  0  0  0  0  0  0  0  0  0
  -45.9890   -6.3989  -28.6467 C   0  0  0  0  0  0  0  0  0  0  0  0
  -44.9227   -5.4370  -28.7062 C   0  0  0  0  0  0  0  0  0  0  0  0
  -43.6896   -6.0044  -28.9116 C   0  0  0  0  0  0  0  0  0  0  0  0
  -43.7900   -7.7006  -28.9806 S   0  0  0  0  0  0  0  0  0  0  0  0
  -45.4978   -7.6944  -28.7598 C   0  0  0  0  0  0  0  0  0  0  0  0
  -46.2769   -8.8154  -28.7205 N   0  0  0  0  0  0  0  0  0  0  0  0
  -45.8453  -10.0297  -29.3896 C   0  0  0  0  0  0  0  0  0  0  0  0
  -46.9710  -10.8856  -29.9851 C   0  0  1  0  0  0  0  0  0  0  0  0
  -47.8560  -10.0847  -30.9805 C   0  0  0  0  0  0  0  0  0  0  0  0
  -48.5277  -10.9786  -31.9347 N   0  0  0  0  0  0  0  0  0  0  0  0
  -49.4452  -10.2673  -32.8119 C   0  0  0  0  0  0  0  0  0  0  0  0
  -47.5319  -11.7450  -32.7069 C   0  0  0  0  0  0  0  0  0  0  0  0
  -46.1708  -11.8702  -32.0063 C   0  0  0  0  0  0  0  0  0  0  0  0
  -46.3397  -12.0409  -30.5946 O   0  0  0  0  0  0  0  0  0  0  0  0
  1  2  1  0
  3  2  1  1
  3  4  1  0
  4  5  1  0
  3  6  1  0
  6  7  1  0
  7  8  2  0
  8  9  1  0
  9 10  1  0
 10 11  1  0
 11 12  1  0
 13 12  1  6
 13 14  1  0
 14 15  1  0
 15 16  1  0
 15 17  1  0
 17 18  1  0
 18 19  1  0
 10  6  2  0
 19 13  1  0
M  END
>  <original SMILES>  (32) 
CC[C@H](NC)c1ccsc1NC[C@H]1CN(C)CCO1

>  <ref_pdb>  (32) 
m0310a

>  <distance_score>  (32) 
0.836766

>  <fragmenstein_runtime>  (32) 
1.686166

>  <name>  (32) 
VRLXLGPVDPAINP-AAEUAGOBSA-N

>  <scratch_subdir>  (32) 
/opt/xchem-fragalysis-2/maxwin/BulkDock/SCRATCH/352917/C1221-P25

>  <ref_mols>  (32) 
m0310a,m0533a

>  <HIPPO Compound ID>  (32) 
1221

>  <energy_score>  (32) 
-53.146488

>  <alias>  (32) 
None

>  <original ID>  (32) 
VRLXLGPVDPAINP-AAEUAGOBSA-N

>  <SLURM_JOB_ID>  (32) 
352917

>  <HIPPO Pose ID>  (32) 
1310

>  <fragmenstein_mode>  (32) 
expansion

>  <fragmenstein_outcome>  (32) 
acceptable

>  <score_inspiration>  (32) 
0.617411

>  <inchikey>  (32) 
VRLXLGPVDPAINP-AAEUAGOBSA-N

>  <csv_name>  (32) 
TRIM21_iter1_fstein_split1000_batch001.csv

>  <fragmenstein_error>  (32) 
None

>  <subsites>  (32) 
None

>  <tags>  (32) 
Fragmenstein placed

$$$$
1311
     RDKit          3D

 19 20  0  0  0  0  0  0  0  0999 V2000
  -47.3114   -5.0634  -26.1090 C   0  0  0  0  0  0  0  0  0  0  0  0
  -47.9213   -6.1134  -27.0278 C   0  0  0  0  0  0  0  0  0  0  0  0
  -47.4171   -5.9659  -28.4728 C   0  0  2  0  0  0  0  0  0  0  0  0
  -48.2184   -6.7496  -29.4401 N   0  0  0  0  0  0  0  0  0  0  0  0
  -49.5250   -6.1566  -29.6966 C   0  0  0  0  0  0  0  0  0  0  0  0
  -45.9618   -6.3912  -28.6139 C   0  0  0  0  0  0  0  0  0  0  0  0
  -44.8798   -5.4463  -28.6405 C   0  0  0  0  0  0  0  0  0  0  0  0
  -43.6535   -6.0293  -28.8430 C   0  0  0  0  0  0  0  0  0  0  0  0
  -43.7788   -7.7224  -28.9401 S   0  0  0  0  0  0  0  0  0  0  0  0
  -45.4888   -7.6922  -28.7378 C   0  0  0  0  0  0  0  0  0  0  0  0
  -46.2860   -8.8018  -28.7262 N   0  0  0  0  0  0  0  0  0  0  0  0
  -45.8728   -9.9920  -29.4489 C   0  0  0  0  0  0  0  0  0  0  0  0
  -47.0133  -10.8354  -30.0320 C   0  0  1  0  0  0  0  0  0  0  0  0
  -47.9376  -10.0150  -30.9744 C   0  0  0  0  0  0  0  0  0  0  0  0
  -48.6220  -10.8879  -31.9396 N   0  0  0  0  0  0  0  0  0  0  0  0
  -49.5749  -10.1646  -32.7668 C   0  0  0  0  0  0  0  0  0  0  0  0
  -47.6369  -11.6072  -32.7676 C   0  0  0  0  0  0  0  0  0  0  0  0
  -46.2590  -11.7416  -32.1059 C   0  0  0  0  0  0  0  0  0  0  0  0
  -46.3938  -11.9643  -30.6978 O   0  0  0  0  0  0  0  0  0  0  0  0
  1  2  1  0
  3  2  1  1
  3  4  1  0
  4  5  1  0
  3  6  1  0
  6  7  1  0
  7  8  2  0
  8  9  1  0
  9 10  1  0
 10 11  1  0
 11 12  1  0
 13 12  1  6
 13 14  1  0
 14 15  1  0
 15 16  1  0
 15 17  1  0
 17 18  1  0
 18 19  1  0
 10  6  2  0
 19 13  1  0
M  END
>  <original SMILES>  (33) 
CC[C@H](NC)c1ccsc1NC[C@H]1CN(C)CCO1

>  <ref_pdb>  (33) 
m0533a

>  <distance_score>  (33) 
0.842754

>  <fragmenstein_runtime>  (33) 
1.51088

>  <name>  (33) 
VRLXLGPVDPAINP-AAEUAGOBSA-N

>  <scratch_subdir>  (33) 
/opt/xchem-fragalysis-2/maxwin/BulkDock/SCRATCH/352917/C1221-P49

>  <ref_mols>  (33) 
m0310a,m0533a

>  <HIPPO Compound ID>  (33) 
1221

>  <energy_score>  (33) 
-52.916578

>  <alias>  (33) 
None

>  <original ID>  (33) 
VRLXLGPVDPAINP-AAEUAGOBSA-N

>  <SLURM_JOB_ID>  (33) 
352917

>  <HIPPO Pose ID>  (33) 
1311

>  <fragmenstein_mode>  (33) 
expansion

>  <fragmenstein_outcome>  (33) 
acceptable

>  <score_inspiration>  (33) 
0.610992

>  <inchikey>  (33) 
VRLXLGPVDPAINP-AAEUAGOBSA-N

>  <csv_name>  (33) 
TRIM21_iter1_fstein_split1000_batch001.csv

>  <fragmenstein_error>  (33) 
None

>  <subsites>  (33) 
None

>  <tags>  (33) 
Fragmenstein placed

$$$$
1354
     RDKit          3D

 18 19  0  0  0  0  0  0  0  0999 V2000
  -50.4863   -1.7662  -21.9745 C   0  0  0  0  0  0  0  0  0  0  0  0
  -48.7829   -1.5637  -22.6102 S   0  0  0  0  0  0  0  0  0  0  0  0
  -47.9939   -2.2842  -21.5530 O   0  0  0  0  0  0  0  0  0  0  0  0
  -48.6515   -2.4931  -24.0324 N   0  0  0  0  0  0  0  0  0  0  0  0
  -47.5397   -3.0281  -24.4218 C   0  0  0  0  0  0  0  0  0  0  0  0
  -47.5130   -3.6799  -25.7957 C   0  0  0  0  0  0  0  0  0  0  0  0
  -46.3485   -4.5635  -26.0216 N   0  0  0  0  0  0  0  0  0  0  0  0
  -46.3194   -4.8634  -27.4736 C   0  0  0  0  0  0  0  0  0  0  0  0
  -45.3310   -5.9036  -27.9392 C   0  0  0  0  0  0  0  0  0  0  0  0
  -45.7085   -7.2464  -28.0726 C   0  0  0  0  0  0  0  0  0  0  0  0
  -44.8030   -8.1905  -28.5641 C   0  0  0  0  0  0  0  0  0  0  0  0
  -43.5082   -7.8058  -28.9073 C   0  0  0  0  0  0  0  0  0  0  0  0
  -43.1214   -6.4778  -28.7724 C   0  0  0  0  0  0  0  0  0  0  0  0
  -44.0332   -5.5320  -28.3121 C   0  0  0  0  0  0  0  0  0  0  0  0
  -45.1150   -3.8776  -25.5931 C   0  0  0  0  0  0  0  0  0  0  0  0
  -45.1745   -3.4776  -24.1172 C   0  0  0  0  0  0  0  0  0  0  0  0
  -44.2083   -3.5142  -23.3505 O   0  0  0  0  0  0  0  0  0  0  0  0
  -46.3815   -2.9966  -23.6948 N   0  0  0  0  0  0  0  0  0  0  0  0
  2  1  1  1
  2  3  2  0
  2  4  1  0
  4  5  2  3
  5  6  1  0
  6  7  1  0
  7  8  1  0
  8  9  1  0
  9 10  2  0
 10 11  1  0
 11 12  2  0
 12 13  1  0
 13 14  2  0
  7 15  1  0
 15 16  1  0
 16 17  2  0
 16 18  1  0
 18  5  1  0
 14  9  1  0
M  END
>  <original SMILES>  (34) 
C[S@@](=O)N=C1CN(Cc2ccccc2)CC(=O)N1

>  <ref_pdb>  (34) 
m0145a

>  <distance_score>  (34) 
0.888329

>  <fragmenstein_runtime>  (34) 
1.744908

>  <name>  (34) 
SGMDQYYEDWBHML-GOSISDBHSA-N

>  <scratch_subdir>  (34) 
/opt/xchem-fragalysis-2/maxwin/BulkDock/SCRATCH/352918/C593-P1

>  <ref_mols>  (34) 
m0145a,m0770a

>  <HIPPO Compound ID>  (34) 
593

>  <energy_score>  (34) 
-36.448734

>  <alias>  (34) 
None

>  <original ID>  (34) 
SGMDQYYEDWBHML-GOSISDBHSA-N

>  <SLURM_JOB_ID>  (34) 
352918

>  <HIPPO Pose ID>  (34) 
1354

>  <fragmenstein_mode>  (34) 
expansion

>  <fragmenstein_outcome>  (34) 
acceptable

>  <score_inspiration>  (34) 
0.775142

>  <inchikey>  (34) 
SGMDQYYEDWBHML-GOSISDBHSA-N

>  <csv_name>  (34) 
TRIM21_iter1_fstein_split1000_batch002.csv

>  <fragmenstein_error>  (34) 
None

>  <subsites>  (34) 
None

>  <tags>  (34) 
Fragmenstein placed

$$$$
1356
     RDKit          3D

 18 19  0  0  0  0  0  0  0  0999 V2000
  -50.5017   -1.8346  -21.9791 C   0  0  0  0  0  0  0  0  0  0  0  0
  -48.7793   -1.6237  -22.5586 S   0  0  0  0  0  0  0  0  0  0  0  0
  -48.0263   -2.3926  -21.5080 O   0  0  0  0  0  0  0  0  0  0  0  0
  -48.6166   -2.4983  -24.0131 N   0  0  0  0  0  0  0  0  0  0  0  0
  -47.4958   -3.0192  -24.3962 C   0  0  0  0  0  0  0  0  0  0  0  0
  -47.4321   -3.6232  -25.7919 C   0  0  0  0  0  0  0  0  0  0  0  0
  -46.2665   -4.5061  -26.0069 N   0  0  0  0  0  0  0  0  0  0  0  0
  -46.1839   -4.7722  -27.4636 C   0  0  0  0  0  0  0  0  0  0  0  0
  -45.1966   -5.8252  -27.9058 C   0  0  0  0  0  0  0  0  0  0  0  0
  -45.6154   -7.1448  -28.1305 C   0  0  0  0  0  0  0  0  0  0  0  0
  -44.7124   -8.1057  -28.5901 C   0  0  0  0  0  0  0  0  0  0  0  0
  -43.3796   -7.7620  -28.8074 C   0  0  0  0  0  0  0  0  0  0  0  0
  -42.9503   -6.4572  -28.5816 C   0  0  0  0  0  0  0  0  0  0  0  0
  -43.8566   -5.4907  -28.1532 C   0  0  0  0  0  0  0  0  0  0  0  0
  -45.0425   -3.8353  -25.5279 C   0  0  0  0  0  0  0  0  0  0  0  0
  -45.1389   -3.4833  -24.0443 C   0  0  0  0  0  0  0  0  0  0  0  0
  -44.1946   -3.5494  -23.2525 O   0  0  0  0  0  0  0  0  0  0  0  0
  -46.3561   -3.0136  -23.6385 N   0  0  0  0  0  0  0  0  0  0  0  0
  2  1  1  1
  2  3  2  0
  2  4  1  0
  4  5  2  3
  5  6  1  0
  6  7  1  0
  7  8  1  0
  8  9  1  0
  9 10  2  0
 10 11  1  0
 11 12  2  0
 12 13  1  0
 13 14  2  0
  7 15  1  0
 15 16  1  0
 16 17  2  0
 16 18  1  0
 18  5  1  0
 14  9  1  0
M  END
>  <original SMILES>  (35) 
C[S@@](=O)N=C1CN(Cc2ccccc2)CC(=O)N1

>  <ref_pdb>  (35) 
m0770a

>  <distance_score>  (35) 
0.859968

>  <fragmenstein_runtime>  (35) 
1.800482

>  <name>  (35) 
SGMDQYYEDWBHML-GOSISDBHSA-N

>  <scratch_subdir>  (35) 
/opt/xchem-fragalysis-2/maxwin/BulkDock/SCRATCH/352918/C593-P80

>  <ref_mols>  (35) 
m0145a,m0770a

>  <HIPPO Compound ID>  (35) 
593

>  <energy_score>  (35) 
-36.396123

>  <alias>  (35) 
None

>  <original ID>  (35) 
SGMDQYYEDWBHML-GOSISDBHSA-N

>  <SLURM_JOB_ID>  (35) 
352918

>  <HIPPO Pose ID>  (35) 
1356

>  <fragmenstein_mode>  (35) 
expansion

>  <fragmenstein_outcome>  (35) 
acceptable

>  <score_inspiration>  (35) 
0.807621

>  <inchikey>  (35) 
SGMDQYYEDWBHML-GOSISDBHSA-N

>  <csv_name>  (35) 
TRIM21_iter1_fstein_split1000_batch002.csv

>  <fragmenstein_error>  (35) 
None

>  <subsites>  (35) 
None

>  <tags>  (35) 
Fragmenstein placed

$$$$
1360
     RDKit          3D

 17 18  0  0  0  0  0  0  0  0999 V2000
  -41.6362   -6.1782  -28.0600 C   0  0  0  0  0  0  0  0  0  0  0  0
  -42.4071   -7.0989  -28.8259 O   0  0  0  0  0  0  0  0  0  0  0  0
  -43.7477   -6.9670  -28.6353 C   0  0  0  0  0  0  0  0  0  0  0  0
  -44.4864   -8.1317  -28.8201 C   0  0  0  0  0  0  0  0  0  0  0  0
  -45.8345   -8.1575  -28.4926 C   0  0  0  0  0  0  0  0  0  0  0  0
  -46.4493   -7.0062  -28.0037 C   0  0  0  0  0  0  0  0  0  0  0  0
  -45.7318   -5.8085  -27.8851 C   0  0  0  0  0  0  0  0  0  0  0  0
  -46.4130   -4.5485  -27.4246 C   0  0  0  0  0  0  0  0  0  0  0  0
  -46.5354   -4.4278  -25.9601 N   0  0  0  0  0  0  0  0  0  0  0  0
  -45.3460   -3.7525  -25.3951 C   0  0  0  0  0  0  0  0  0  0  0  0
  -45.4733   -3.5802  -23.8732 C   0  0  0  0  0  0  0  0  0  0  0  0
  -44.5077   -3.5459  -23.1039 O   0  0  0  0  0  0  0  0  0  0  0  0
  -46.7457   -3.4012  -23.3965 N   0  0  0  0  0  0  0  0  0  0  0  0
  -47.8927   -3.4371  -24.1454 C   0  0  0  0  0  0  0  0  0  0  0  0
  -48.9903   -3.2548  -23.6219 O   0  0  0  0  0  0  0  0  0  0  0  0
  -47.7333   -3.6278  -25.6460 C   0  0  0  0  0  0  0  0  0  0  0  0
  -44.3774   -5.7916  -28.2269 C   0  0  0  0  0  0  0  0  0  0  0  0
  1  2  1  0
  2  3  1  0
  3  4  2  0
  4  5  1  0
  5  6  2  0
  6  7  1  0
  7  8  1  0
  8  9  1  0
  9 10  1  0
 10 11  1  0
 11 12  2  0
 11 13  1  0
 13 14  1  0
 14 15  2  0
 14 16  1  0
  7 17  2  0
 17  3  1  0
 16  9  1  0
M  END
>  <original SMILES>  (36) 
COc1cccc(CN2CC(=O)NC(=O)C2)c1

>  <ref_pdb>  (36) 
m0099a

>  <distance_score>  (36) 
0.93287

>  <fragmenstein_runtime>  (36) 
2.845791

>  <name>  (36) 
NKPDKKYAVCLHCA-UHFFFAOYSA-N

>  <scratch_subdir>  (36) 
/opt/xchem-fragalysis-2/maxwin/BulkDock/SCRATCH/352918/C620-P6

>  <ref_mols>  (36) 
m0099a,m0770a

>  <HIPPO Compound ID>  (36) 
620

>  <energy_score>  (36) 
-32.033476

>  <alias>  (36) 
None

>  <original ID>  (36) 
NKPDKKYAVCLHCA-UHFFFAOYSA-N

>  <SLURM_JOB_ID>  (36) 
352918

>  <HIPPO Pose ID>  (36) 
1360

>  <fragmenstein_mode>  (36) 
expansion

>  <fragmenstein_outcome>  (36) 
acceptable

>  <score_inspiration>  (36) 
0.766254

>  <inchikey>  (36) 
NKPDKKYAVCLHCA-UHFFFAOYSA-N

>  <csv_name>  (36) 
TRIM21_iter1_fstein_split1000_batch002.csv

>  <fragmenstein_error>  (36) 
None

>  <subsites>  (36) 
None

>  <tags>  (36) 
Fragmenstein placed

$$$$
1361
     RDKit          3D

 17 18  0  0  0  0  0  0  0  0999 V2000
  -41.6666   -6.2876  -28.0691 C   0  0  0  0  0  0  0  0  0  0  0  0
  -42.4589   -7.1603  -28.8669 O   0  0  0  0  0  0  0  0  0  0  0  0
  -43.7921   -7.0171  -28.6404 C   0  0  0  0  0  0  0  0  0  0  0  0
  -44.5482   -8.1740  -28.8019 C   0  0  0  0  0  0  0  0  0  0  0  0
  -45.8866   -8.1806  -28.4372 C   0  0  0  0  0  0  0  0  0  0  0  0
  -46.4720   -7.0194  -27.9353 C   0  0  0  0  0  0  0  0  0  0  0  0
  -45.7361   -5.8307  -27.8404 C   0  0  0  0  0  0  0  0  0  0  0  0
  -46.3857   -4.5598  -27.3667 C   0  0  0  0  0  0  0  0  0  0  0  0
  -46.4658   -4.4428  -25.8995 N   0  0  0  0  0  0  0  0  0  0  0  0
  -45.2697   -3.7586  -25.3605 C   0  0  0  0  0  0  0  0  0  0  0  0
  -45.3635   -3.5970  -23.8373 C   0  0  0  0  0  0  0  0  0  0  0  0
  -44.3761   -3.5770  -23.0955 O   0  0  0  0  0  0  0  0  0  0  0  0
  -46.6248   -3.4233  -23.3271 N   0  0  0  0  0  0  0  0  0  0  0  0
  -47.7926   -3.4988  -24.0423 C   0  0  0  0  0  0  0  0  0  0  0  0
  -48.8823   -3.3842  -23.4842 O   0  0  0  0  0  0  0  0  0  0  0  0
  -47.6651   -3.6588  -25.5495 C   0  0  0  0  0  0  0  0  0  0  0  0
  -44.3930   -5.8321  -28.2186 C   0  0  0  0  0  0  0  0  0  0  0  0
  1  2  1  0
  2  3  1  0
  3  4  2  0
  4  5  1  0
  5  6  2  0
  6  7  1  0
  7  8  1  0
  8  9  1  0
  9 10  1  0
 10 11  1  0
 11 12  2  0
 11 13  1  0
 13 14  1  0
 14 15  2  0
 14 16  1  0
  7 17  2  0
 17  3  1  0
 16  9  1  0
M  END
>  <original SMILES>  (37) 
COc1cccc(CN2CC(=O)NC(=O)C2)c1

>  <ref_pdb>  (37) 
m0770a

>  <distance_score>  (37) 
0.92312

>  <fragmenstein_runtime>  (37) 
2.536615

>  <name>  (37) 
NKPDKKYAVCLHCA-UHFFFAOYSA-N

>  <scratch_subdir>  (37) 
/opt/xchem-fragalysis-2/maxwin/BulkDock/SCRATCH/352918/C620-P80

>  <ref_mols>  (37) 
m0099a,m0770a

>  <HIPPO Compound ID>  (37) 
620

>  <energy_score>  (37) 
-31.790435

>  <alias>  (37) 
None

>  <original ID>  (37) 
NKPDKKYAVCLHCA-UHFFFAOYSA-N

>  <SLURM_JOB_ID>  (37) 
352918

>  <HIPPO Pose ID>  (37) 
1361

>  <fragmenstein_mode>  (37) 
expansion

>  <fragmenstein_outcome>  (37) 
acceptable

>  <score_inspiration>  (37) 
0.778191

>  <inchikey>  (37) 
NKPDKKYAVCLHCA-UHFFFAOYSA-N

>  <csv_name>  (37) 
TRIM21_iter1_fstein_split1000_batch002.csv

>  <fragmenstein_error>  (37) 
None

>  <subsites>  (37) 
None

>  <tags>  (37) 
Fragmenstein placed

$$$$
1374
     RDKit          3D

 17 18  0  0  0  0  0  0  0  0999 V2000
  -49.1797    0.2189  -24.4242 C   0  0  0  0  0  0  0  0  0  0  0  0
  -48.6501   -0.9791  -23.7091 C   0  0  0  0  0  0  0  0  0  0  0  0
  -47.4059   -1.2931  -23.7928 N   0  0  0  0  0  0  0  0  0  0  0  0
  -47.0493   -2.5627  -23.1630 C   0  0  2  0  0  0  0  0  0  0  0  0
  -45.4976   -2.7605  -23.2339 C   0  0  0  0  0  0  0  0  0  0  0  0
  -44.9778   -3.5063  -24.4152 N   0  0  0  0  0  0  0  0  0  0  0  0
  -44.6906   -4.9096  -24.0872 C   0  0  0  0  0  0  0  0  0  0  0  0
  -44.1445   -5.7580  -25.2205 C   0  0  0  0  0  0  0  0  0  0  0  0
  -43.2160   -5.2608  -26.1472 C   0  0  0  0  0  0  0  0  0  0  0  0
  -42.7376   -6.0640  -27.1853 C   0  0  0  0  0  0  0  0  0  0  0  0
  -43.1652   -7.3840  -27.2971 C   0  0  0  0  0  0  0  0  0  0  0  0
  -44.0774   -7.8980  -26.3795 C   0  0  0  0  0  0  0  0  0  0  0  0
  -44.5632   -7.0902  -25.3499 C   0  0  0  0  0  0  0  0  0  0  0  0
  -45.9414   -3.3814  -25.5391 C   0  0  0  0  0  0  0  0  0  0  0  0
  -47.3307   -3.8975  -25.1544 C   0  0  0  0  0  0  0  0  0  0  0  0
  -48.0738   -4.5038  -25.9183 O   0  0  0  0  0  0  0  0  0  0  0  0
  -47.7396   -3.6040  -23.8753 N   0  0  0  0  0  0  0  0  0  0  0  0
  1  2  1  0
  2  3  2  3
  3  4  1  0
  4  5  1  6
  5  6  1  0
  6  7  1  0
  7  8  1  0
  8  9  2  0
  9 10  1  0
 10 11  2  0
 11 12  1  0
 12 13  2  0
  6 14  1  0
 14 15  1  0
 15 16  2  0
 15 17  1  0
 17  4  1  0
 13  8  1  0
M  END
>  <original SMILES>  (38) 
CC=N[C@@H]1CN(Cc2ccccc2)CC(=O)N1

>  <ref_pdb>  (38) 
m0248a

>  <distance_score>  (38) 
0.863936

>  <fragmenstein_runtime>  (38) 
1.539903

>  <name>  (38) 
PJZFKZLXTYWAIJ-LBPRGKRZSA-N

>  <scratch_subdir>  (38) 
/opt/xchem-fragalysis-2/maxwin/BulkDock/SCRATCH/352918/C625-P20

>  <ref_mols>  (38) 
m0248a,m0770a

>  <HIPPO Compound ID>  (38) 
625

>  <energy_score>  (38) 
-27.233079

>  <alias>  (38) 
None

>  <original ID>  (38) 
PJZFKZLXTYWAIJ-LBPRGKRZSA-N

>  <SLURM_JOB_ID>  (38) 
352918

>  <HIPPO Pose ID>  (38) 
1374

>  <fragmenstein_mode>  (38) 
expansion

>  <fragmenstein_outcome>  (38) 
acceptable

>  <score_inspiration>  (38) 
0.700758

>  <inchikey>  (38) 
PJZFKZLXTYWAIJ-LBPRGKRZSA-N

>  <csv_name>  (38) 
TRIM21_iter1_fstein_split1000_batch002.csv

>  <fragmenstein_error>  (38) 
None

>  <subsites>  (38) 
None

>  <tags>  (38) 
Fragmenstein placed

$$$$
1430
     RDKit          3D

 15 15  0  0  0  0  0  0  0  0999 V2000
  -48.1323   -5.8557  -30.2215 C   0  0  0  0  0  0  0  0  0  0  0  0
  -47.0590   -5.5467  -29.1647 C   0  0  1  0  0  0  0  0  0  0  0  0
  -47.7151   -5.4619  -27.7722 C   0  0  0  0  0  0  0  0  0  0  0  0
  -47.1767   -4.2977  -27.0186 N   0  0  0  0  0  0  0  0  0  0  0  0
  -47.2001   -4.5052  -25.3481 S   0  0  0  0  0  0  0  0  0  0  0  0
  -46.6300   -2.9221  -24.7855 C   0  0  0  0  0  0  0  0  0  0  0  0
  -48.5799   -4.6801  -24.9617 O   0  0  0  0  0  0  0  0  0  0  0  0
  -46.1851   -5.4856  -25.0488 O   0  0  0  0  0  0  0  0  0  0  0  0
  -45.8598   -6.4931  -29.1800 C   0  0  0  0  0  0  0  0  0  0  0  0
  -45.9770   -7.7833  -29.7145 C   0  0  0  0  0  0  0  0  0  0  0  0
  -44.8735   -8.6292  -29.7960 C   0  0  0  0  0  0  0  0  0  0  0  0
  -43.6278   -8.2086  -29.3508 C   0  0  0  0  0  0  0  0  0  0  0  0
  -43.4837   -6.9554  -28.7902 C   0  0  0  0  0  0  0  0  0  0  0  0
  -44.5957   -6.1236  -28.6779 C   0  0  0  0  0  0  0  0  0  0  0  0
  -44.3270   -4.6813  -27.8059 Cl  0  0  0  0  0  0  0  0  0  0  0  0
  2  1  1  6
  2  3  1  0
  3  4  1  0
  4  5  1  0
  5  6  1  0
  5  7  2  0
  5  8  2  0
  2  9  1  0
  9 10  2  0
 10 11  1  0
 11 12  2  0
 12 13  1  0
 13 14  2  0
 14 15  1  0
 14  9  1  0
M  END
>  <original SMILES>  (39) 
C[C@@H](CNS(C)(=O)=O)c1ccccc1Cl

>  <ref_pdb>  (39) 
m0536a

>  <distance_score>  (39) 
0.804607

>  <fragmenstein_runtime>  (39) 
1.884332

>  <name>  (39) 
HRDVOXDBULKQLM-QMMMGPOBSA-N

>  <scratch_subdir>  (39) 
/opt/xchem-fragalysis-2/maxwin/BulkDock/SCRATCH/352917/C1301-P50

>  <ref_mols>  (39) 
m0536a,m0789a

>  <HIPPO Compound ID>  (39) 
1301

>  <energy_score>  (39) 
-35.399459

>  <alias>  (39) 
None

>  <original ID>  (39) 
HRDVOXDBULKQLM-QMMMGPOBSA-N

>  <SLURM_JOB_ID>  (39) 
352917

>  <HIPPO Pose ID>  (39) 
1430

>  <fragmenstein_mode>  (39) 
expansion

>  <fragmenstein_outcome>  (39) 
acceptable

>  <score_inspiration>  (39) 
0.535154

>  <inchikey>  (39) 
HRDVOXDBULKQLM-QMMMGPOBSA-N

>  <csv_name>  (39) 
TRIM21_iter1_fstein_split1000_batch001.csv

>  <fragmenstein_error>  (39) 
None

>  <subsites>  (39) 
None

>  <tags>  (39) 
Fragmenstein placed

$$$$
1431
     RDKit          3D

 15 15  0  0  0  0  0  0  0  0999 V2000
  -48.2360   -5.9412  -30.2968 C   0  0  0  0  0  0  0  0  0  0  0  0
  -47.1579   -5.5842  -29.2600 C   0  0  1  0  0  0  0  0  0  0  0  0
  -47.7995   -5.5037  -27.8566 C   0  0  0  0  0  0  0  0  0  0  0  0
  -47.2907   -4.3160  -27.1138 N   0  0  0  0  0  0  0  0  0  0  0  0
  -47.3159   -4.5071  -25.4382 S   0  0  0  0  0  0  0  0  0  0  0  0
  -46.7082   -2.9316  -24.8909 C   0  0  0  0  0  0  0  0  0  0  0  0
  -48.6944   -4.6549  -25.0373 O   0  0  0  0  0  0  0  0  0  0  0  0
  -46.3222   -5.5059  -25.1344 O   0  0  0  0  0  0  0  0  0  0  0  0
  -45.9354   -6.5059  -29.2865 C   0  0  0  0  0  0  0  0  0  0  0  0
  -46.0188   -7.8103  -29.7903 C   0  0  0  0  0  0  0  0  0  0  0  0
  -44.8875   -8.6240  -29.8738 C   0  0  0  0  0  0  0  0  0  0  0  0
  -43.6443   -8.1575  -29.4643 C   0  0  0  0  0  0  0  0  0  0  0  0
  -43.5339   -6.8870  -28.9347 C   0  0  0  0  0  0  0  0  0  0  0  0
  -44.6747   -6.0916  -28.8183 C   0  0  0  0  0  0  0  0  0  0  0  0
  -44.4661   -4.6280  -27.9734 Cl  0  0  0  0  0  0  0  0  0  0  0  0
  2  1  1  6
  2  3  1  0
  3  4  1  0
  4  5  1  0
  5  6  1  0
  5  7  2  0
  5  8  2  0
  2  9  1  0
  9 10  2  0
 10 11  1  0
 11 12  2  0
 12 13  1  0
 13 14  2  0
 14 15  1  0
 14  9  1  0
M  END
>  <original SMILES>  (40) 
C[C@@H](CNS(C)(=O)=O)c1ccccc1Cl

>  <ref_pdb>  (40) 
m0789a

>  <distance_score>  (40) 
0.81099

>  <fragmenstein_runtime>  (40) 
1.670833

>  <name>  (40) 
HRDVOXDBULKQLM-QMMMGPOBSA-N

>  <scratch_subdir>  (40) 
/opt/xchem-fragalysis-2/maxwin/BulkDock/SCRATCH/352917/C1301-P82

>  <ref_mols>  (40) 
m0536a,m0789a

>  <HIPPO Compound ID>  (40) 
1301

>  <energy_score>  (40) 
-35.389947

>  <alias>  (40) 
None

>  <original ID>  (40) 
HRDVOXDBULKQLM-QMMMGPOBSA-N

>  <SLURM_JOB_ID>  (40) 
352917

>  <HIPPO Pose ID>  (40) 
1431

>  <fragmenstein_mode>  (40) 
expansion

>  <fragmenstein_outcome>  (40) 
acceptable

>  <score_inspiration>  (40) 
0.522923

>  <inchikey>  (40) 
HRDVOXDBULKQLM-QMMMGPOBSA-N

>  <csv_name>  (40) 
TRIM21_iter1_fstein_split1000_batch001.csv

>  <fragmenstein_error>  (40) 
None

>  <subsites>  (40) 
None

>  <tags>  (40) 
Fragmenstein placed

$$$$
1502
     RDKit          3D

 16 17  0  0  0  0  0  0  0  0999 V2000
  -48.8075   -6.7767  -29.5179 C   0  0  0  0  0  0  0  0  0  0  0  0
  -48.2415   -6.6688  -28.1055 C   0  0  0  0  0  0  0  0  0  0  0  0
  -46.9908   -5.7568  -28.0491 C   0  0  1  0  0  0  0  0  0  0  0  0
  -47.0914   -4.8890  -26.7901 C   0  0  0  0  0  0  0  0  0  0  0  0
  -47.8665   -3.7200  -26.8119 C   0  0  0  0  0  0  0  0  0  0  0  0
  -47.9457   -2.8901  -25.6913 C   0  0  0  0  0  0  0  0  0  0  0  0
  -47.2622   -3.2318  -24.5355 C   0  0  0  0  0  0  0  0  0  0  0  0
  -47.3379   -2.4349  -23.4618 F   0  0  0  0  0  0  0  0  0  0  0  0
  -46.5215   -4.4009  -24.4746 C   0  0  0  0  0  0  0  0  0  0  0  0
  -46.4592   -5.2364  -25.5911 C   0  0  0  0  0  0  0  0  0  0  0  0
  -45.6617   -6.4225  -28.1643 N   0  0  0  0  0  0  0  0  0  0  0  0
  -44.6400   -5.4291  -28.6021 C   0  0  0  0  0  0  0  0  0  0  0  0
  -43.2465   -6.0497  -28.7802 C   0  0  0  0  0  0  0  0  0  0  0  0
  -43.2693   -7.1532  -29.6935 O   0  0  0  0  0  0  0  0  0  0  0  0
  -44.1990   -8.1372  -29.2291 C   0  0  0  0  0  0  0  0  0  0  0  0
  -45.6139   -7.5517  -29.1132 C   0  0  0  0  0  0  0  0  0  0  0  0
  1  2  1  0
  3  2  1  1
  3  4  1  0
  4  5  2  0
  5  6  1  0
  6  7  2  0
  7  8  1  0
  7  9  1  0
  9 10  2  0
  3 11  1  0
 11 12  1  0
 12 13  1  0
 13 14  1  0
 14 15  1  0
 15 16  1  0
 10  4  1  0
 16 11  1  0
M  END
>  <original SMILES>  (41) 
CC[C@@H](c1ccc(F)cc1)N1CCOCC1

>  <ref_pdb>  (41) 
m0199a

>  <distance_score>  (41) 
0.701323

>  <fragmenstein_runtime>  (41) 
1.382563

>  <name>  (41) 
OZKAWODTNNPXGA-ZDUSSCGKSA-N

>  <scratch_subdir>  (41) 
/opt/xchem-fragalysis-2/maxwin/BulkDock/SCRATCH/352918/C721-P12

>  <ref_mols>  (41) 
m0199a,m0790a

>  <HIPPO Compound ID>  (41) 
721

>  <energy_score>  (41) 
-27.56335

>  <alias>  (41) 
None

>  <original ID>  (41) 
OZKAWODTNNPXGA-ZDUSSCGKSA-N

>  <SLURM_JOB_ID>  (41) 
352918

>  <HIPPO Pose ID>  (41) 
1502

>  <fragmenstein_mode>  (41) 
expansion

>  <fragmenstein_outcome>  (41) 
acceptable

>  <score_inspiration>  (41) 
0.585551

>  <inchikey>  (41) 
OZKAWODTNNPXGA-ZDUSSCGKSA-N

>  <csv_name>  (41) 
TRIM21_iter1_fstein_split1000_batch002.csv

>  <fragmenstein_error>  (41) 
None

>  <subsites>  (41) 
None

>  <tags>  (41) 
Fragmenstein placed

$$$$
1503
     RDKit          3D

 16 17  0  0  0  0  0  0  0  0999 V2000
  -48.8103   -6.8074  -29.5433 C   0  0  0  0  0  0  0  0  0  0  0  0
  -48.2479   -6.6959  -28.1299 C   0  0  0  0  0  0  0  0  0  0  0  0
  -47.0052   -5.7736  -28.0707 C   0  0  1  0  0  0  0  0  0  0  0  0
  -47.1143   -4.9146  -26.8073 C   0  0  0  0  0  0  0  0  0  0  0  0
  -47.8667   -3.7312  -26.8325 C   0  0  0  0  0  0  0  0  0  0  0  0
  -47.9562   -2.9126  -25.7044 C   0  0  0  0  0  0  0  0  0  0  0  0
  -47.3098   -3.2830  -24.5364 C   0  0  0  0  0  0  0  0  0  0  0  0
  -47.3970   -2.4990  -23.4543 F   0  0  0  0  0  0  0  0  0  0  0  0
  -46.5968   -4.4688  -24.4720 C   0  0  0  0  0  0  0  0  0  0  0  0
  -46.5213   -5.2909  -25.5978 C   0  0  0  0  0  0  0  0  0  0  0  0
  -45.6678   -6.4227  -28.1882 N   0  0  0  0  0  0  0  0  0  0  0  0
  -44.6623   -5.4198  -28.6417 C   0  0  0  0  0  0  0  0  0  0  0  0
  -43.2605   -6.0187  -28.8357 C   0  0  0  0  0  0  0  0  0  0  0  0
  -43.2776   -7.1358  -29.7326 O   0  0  0  0  0  0  0  0  0  0  0  0
  -44.1875   -8.1275  -29.2460 C   0  0  0  0  0  0  0  0  0  0  0  0
  -45.6099   -7.5615  -29.1247 C   0  0  0  0  0  0  0  0  0  0  0  0
  1  2  1  0
  3  2  1  1
  3  4  1  0
  4  5  2  0
  5  6  1  0
  6  7  2  0
  7  8  1  0
  7  9  1  0
  9 10  2  0
  3 11  1  0
 11 12  1  0
 12 13  1  0
 13 14  1  0
 14 15  1  0
 15 16  1  0
 10  4  1  0
 16 11  1  0
M  END
>  <original SMILES>  (42) 
CC[C@@H](c1ccc(F)cc1)N1CCOCC1

>  <ref_pdb>  (42) 
m0790a

>  <distance_score>  (42) 
0.706949

>  <fragmenstein_runtime>  (42) 
1.575626

>  <name>  (42) 
OZKAWODTNNPXGA-ZDUSSCGKSA-N

>  <scratch_subdir>  (42) 
/opt/xchem-fragalysis-2/maxwin/BulkDock/SCRATCH/352918/C721-P83

>  <ref_mols>  (42) 
m0199a,m0790a

>  <HIPPO Compound ID>  (42) 
721

>  <energy_score>  (42) 
-27.530048

>  <alias>  (42) 
None

>  <original ID>  (42) 
OZKAWODTNNPXGA-ZDUSSCGKSA-N

>  <SLURM_JOB_ID>  (42) 
352918

>  <HIPPO Pose ID>  (42) 
1503

>  <fragmenstein_mode>  (42) 
expansion

>  <fragmenstein_outcome>  (42) 
acceptable

>  <score_inspiration>  (42) 
0.585753

>  <inchikey>  (42) 
OZKAWODTNNPXGA-ZDUSSCGKSA-N

>  <csv_name>  (42) 
TRIM21_iter1_fstein_split1000_batch002.csv

>  <fragmenstein_error>  (42) 
None

>  <subsites>  (42) 
None

>  <tags>  (42) 
Fragmenstein placed

$$$$
1504
     RDKit          3D

 18 19  0  0  0  0  0  0  0  0999 V2000
  -48.2303   -5.5027  -29.6999 C   0  0  0  0  0  0  0  0  0  0  0  0
  -48.1515   -6.3377  -28.4278 C   0  0  0  0  0  0  0  0  0  0  0  0
  -46.8954   -6.0990  -27.5579 C   0  0  2  0  0  0  0  0  0  0  0  0
  -46.9108   -4.7154  -27.0252 N   0  0  0  0  0  0  0  0  0  0  0  0
  -46.1343   -4.6198  -25.8015 N   0  0  0  0  0  0  0  0  0  0  0  0
  -47.0549   -4.2442  -24.7193 C   0  0  0  0  0  0  0  0  0  0  0  0
  -46.3270   -4.0258  -23.4099 C   0  0  0  0  0  0  0  0  0  0  0  0
  -45.2555   -2.6355  -23.5020 S   0  0  0  0  0  0  0  0  0  0  0  0
  -43.9759   -3.0398  -22.9423 O   0  0  0  0  0  0  0  0  0  0  0  0
  -45.9719   -1.5029  -22.9543 O   0  0  0  0  0  0  0  0  0  0  0  0
  -45.0712   -2.3915  -25.2395 C   0  0  0  0  0  0  0  0  0  0  0  0
  -44.9643   -3.7305  -25.9384 C   0  0  0  0  0  0  0  0  0  0  0  0
  -45.6256   -6.5059  -28.2958 C   0  0  0  0  0  0  0  0  0  0  0  0
  -44.7327   -5.5916  -28.8627 C   0  0  0  0  0  0  0  0  0  0  0  0
  -43.5812   -6.0497  -29.4805 C   0  0  0  0  0  0  0  0  0  0  0  0
  -43.2815   -7.3536  -29.6272 N   0  0  0  0  0  0  0  0  0  0  0  0
  -44.1803   -8.2293  -29.1360 C   0  0  0  0  0  0  0  0  0  0  0  0
  -45.3350   -7.8650  -28.4609 C   0  0  0  0  0  0  0  0  0  0  0  0
  1  2  1  0
  3  2  1  6
  3  4  1  0
  4  5  1  0
  5  6  1  0
  6  7  1  0
  7  8  1  0
  8  9  2  0
  8 10  2  0
  8 11  1  0
 11 12  1  0
  3 13  1  0
 13 14  2  0
 14 15  1  0
 15 16  2  0
 16 17  1  0
 17 18  2  0
 12  5  1  0
 18 13  1  0
M  END
>  <original SMILES>  (43) 
CC[C@H](NN1CCS(=O)(=O)CC1)c1ccncc1

>  <ref_pdb>  (43) 
m0219a

>  <distance_score>  (43) 
0.984326

>  <fragmenstein_runtime>  (43) 
2.808801

>  <name>  (43) 
PSDHESILGBYFKO-LBPRGKRZSA-N

>  <scratch_subdir>  (43) 
/opt/xchem-fragalysis-2/maxwin/BulkDock/SCRATCH/352918/C722-P16

>  <ref_mols>  (43) 
m0219a,m0790a

>  <HIPPO Compound ID>  (43) 
722

>  <energy_score>  (43) 
-43.964594

>  <alias>  (43) 
None

>  <original ID>  (43) 
PSDHESILGBYFKO-LBPRGKRZSA-N

>  <SLURM_JOB_ID>  (43) 
352918

>  <HIPPO Pose ID>  (43) 
1504

>  <fragmenstein_mode>  (43) 
expansion

>  <fragmenstein_outcome>  (43) 
acceptable

>  <score_inspiration>  (43) 
0.815488

>  <inchikey>  (43) 
PSDHESILGBYFKO-LBPRGKRZSA-N

>  <csv_name>  (43) 
TRIM21_iter1_fstein_split1000_batch002.csv

>  <fragmenstein_error>  (43) 
None

>  <subsites>  (43) 
None

>  <tags>  (43) 
Fragmenstein placed

$$$$
1711
     RDKit          3D

 20 21  0  0  0  0  0  0  0  0999 V2000
  -45.2033   -0.4977  -23.0333 C   0  0  0  0  0  0  0  0  0  0  0  0
  -45.4633   -1.9042  -23.3179 C   0  0  0  0  0  0  0  0  0  0  0  0
  -45.6711   -3.0510  -23.6038 C   0  0  0  0  0  0  0  0  0  0  0  0
  -45.9908   -4.4398  -23.9374 C   0  0  0  0  0  0  0  0  0  0  0  0
  -45.0516   -5.0594  -24.8899 N   0  0  0  0  0  0  0  0  0  0  0  0
  -45.2856   -6.5044  -24.8966 C   0  0  0  0  0  0  0  0  0  0  0  0
  -45.1221   -4.4445  -26.2409 C   0  0  1  0  0  0  0  0  0  0  0  0
  -44.0096   -4.9581  -27.1646 C   0  0  0  0  0  0  0  0  0  0  0  0
  -44.6523   -5.9851  -28.0947 C   0  0  0  0  0  0  0  0  0  0  0  0
  -46.0997   -5.9855  -27.7776 N   0  0  0  0  0  0  0  0  0  0  0  0
  -47.1557   -6.3977  -29.0124 S   0  0  0  0  0  0  0  0  0  0  0  0
  -48.4923   -6.4485  -28.4663 O   0  0  0  0  0  0  0  0  0  0  0  0
  -46.8511   -5.6151  -30.1867 O   0  0  0  0  0  0  0  0  0  0  0  0
  -46.6444   -7.9717  -29.2763 N   0  0  0  0  0  0  0  0  0  0  0  0
  -46.7277   -9.0674  -28.2700 C   0  0  0  0  0  0  0  0  0  0  0  0
  -46.8162  -10.1033  -29.4159 C   0  0  0  0  0  0  0  0  0  0  0  0
  -47.7755  -11.1798  -29.2780 O   0  0  0  0  0  0  0  0  0  0  0  0
  -47.4698  -12.1473  -28.2856 C   0  0  0  0  0  0  0  0  0  0  0  0
  -47.2436   -8.8949  -30.2841 C   0  0  0  0  0  0  0  0  0  0  0  0
  -46.3905   -4.7127  -27.0785 C   0  0  0  0  0  0  0  0  0  0  0  0
  1  2  1  0
  2  3  3  0
  3  4  1  0
  4  5  1  0
  5  6  1  0
  7  5  1  1
  7  8  1  0
  8  9  1  0
  9 10  1  0
 10 11  1  0
 11 12  2  0
 11 13  2  0
 11 14  1  0
 14 15  1  0
 15 16  1  0
 16 17  1  0
 17 18  1  0
 16 19  1  0
 10 20  1  0
 20  7  1  0
 19 14  1  0
M  END
>  <original SMILES>  (44) 
CC#CCN(C)[C@H]1CCN(S(=O)(=O)N2CC(OC)C2)C1

>  <ref_pdb>  (44) 
m0604a

>  <distance_score>  (44) 
0.926197

>  <fragmenstein_runtime>  (44) 
1.875053

>  <name>  (44) 
ZEOHPIMDMSUOEM-LBPRGKRZSA-N

>  <scratch_subdir>  (44) 
/opt/xchem-fragalysis-2/maxwin/BulkDock/SCRATCH/352917/C1504-P57

>  <ref_mols>  (44) 
m0472a,m0604a

>  <HIPPO Compound ID>  (44) 
1504

>  <energy_score>  (44) 
-57.75528

>  <alias>  (44) 
None

>  <original ID>  (44) 
ZEOHPIMDMSUOEM-LBPRGKRZSA-N

>  <SLURM_JOB_ID>  (44) 
352917

>  <HIPPO Pose ID>  (44) 
1711

>  <fragmenstein_mode>  (44) 
expansion

>  <fragmenstein_outcome>  (44) 
acceptable

>  <score_inspiration>  (44) 
0.281104

>  <inchikey>  (44) 
ZEOHPIMDMSUOEM-LBPRGKRZSA-N

>  <csv_name>  (44) 
TRIM21_iter1_fstein_split1000_batch001.csv

>  <fragmenstein_error>  (44) 
None

>  <subsites>  (44) 
None

>  <tags>  (44) 
Fragmenstein placed

$$$$
1864
     RDKit          3D

 32 35  0  0  0  0  0  0  0  0999 V2000
  -41.7887  -18.3022  -17.9148 C   0  0  0  0  0  0  0  0  0  0  0  0
  -40.8573  -17.1875  -17.4300 C   0  0  0  0  0  0  0  0  0  0  0  0
  -40.9925  -16.9819  -15.9194 C   0  0  0  0  0  0  0  0  0  0  0  0
  -41.1155  -15.9410  -18.2024 N   0  0  0  0  0  0  0  0  0  0  0  0
  -42.3546  -15.2375  -17.8850 C   0  0  0  0  0  0  0  0  0  0  0  0
  -39.9778  -15.1334  -18.4609 C   0  0  0  0  0  0  0  0  0  0  0  0
  -38.7724  -15.7095  -18.9426 C   0  0  0  0  0  0  0  0  0  0  0  0
  -38.7353  -16.9207  -19.8588 C   0  0  0  0  0  0  0  0  0  0  0  0
  -38.0131  -16.5443  -21.1801 C   0  0  0  0  0  0  0  0  0  0  0  0
  -38.5865  -16.8935  -22.5676 C   0  0  0  0  0  0  0  0  0  0  0  0
  -40.0435  -16.4716  -22.8392 C   0  0  1  0  0  0  0  0  0  0  0  0
  -40.8891  -17.5350  -22.1473 C   0  0  0  0  0  0  0  0  0  0  0  0
  -40.2851  -15.0501  -22.4886 N   0  0  0  0  0  0  0  0  0  0  0  0
  -39.2812  -14.0663  -22.9025 C   0  0  0  0  0  0  0  0  0  0  0  0
  -41.4471  -14.4421  -22.0143 C   0  0  0  0  0  0  0  0  0  0  0  0
  -41.3281  -13.1290  -21.6207 N   0  0  0  0  0  0  0  0  0  0  0  0
  -42.3523  -12.4812  -21.0402 C   0  0  0  0  0  0  0  0  0  0  0  0
  -43.5610  -12.9656  -20.7461 N   0  0  0  0  0  0  0  0  0  0  0  0
  -43.6947  -14.2192  -21.2055 C   0  0  0  0  0  0  0  0  0  0  0  0
  -42.7510  -14.9749  -21.8901 C   0  0  0  0  0  0  0  0  0  0  0  0
  -43.5144  -16.0859  -22.3200 C   0  0  0  0  0  0  0  0  0  0  0  0
  -44.7357  -16.1516  -21.7780 N   0  0  0  0  0  0  0  0  0  0  0  0
  -44.7940  -15.0175  -21.0564 N   0  0  0  0  0  0  0  0  0  0  0  0
  -45.9563  -14.7469  -20.2516 C   0  0  0  0  0  0  0  0  0  0  0  0
  -37.5742  -15.0146  -18.8251 C   0  0  0  0  0  0  0  0  0  0  0  0
  -37.4738  -13.7113  -18.6017 N   0  0  0  0  0  0  0  0  0  0  0  0
  -38.6559  -13.1090  -18.5361 C   0  0  0  0  0  0  0  0  0  0  0  0
  -39.8982  -13.7112  -18.4330 C   0  0  0  0  0  0  0  0  0  0  0  0
  -40.7476  -12.5827  -18.3448 C   0  0  0  0  0  0  0  0  0  0  0  0
  -40.1356  -11.4049  -18.5650 N   0  0  0  0  0  0  0  0  0  0  0  0
  -38.8405  -11.7641  -18.6093 N   0  0  0  0  0  0  0  0  0  0  0  0
  -37.7991  -10.7965  -18.8427 C   0  0  0  0  0  0  0  0  0  0  0  0
  1  2  1  0
  2  3  1  0
  2  4  1  0
  4  5  1  0
  4  6  1  0
  6  7  2  0
  7  8  1  0
  8  9  1  0
  9 10  1  0
 10 11  1  0
 11 12  1  1
 11 13  1  0
 13 14  1  0
 13 15  1  0
 15 16  2  0
 16 17  1  0
 17 18  2  0
 18 19  1  0
 19 20  2  0
 20 21  1  0
 21 22  2  0
 22 23  1  0
 23 24  1  0
  7 25  1  0
 25 26  2  0
 26 27  1  0
 27 28  2  0
 28 29  1  0
 29 30  2  0
 30 31  1  0
 31 32  1  0
 28  6  1  0
 20 15  1  0
 31 27  1  0
 23 19  1  0
M  END
>  <original SMILES>  (45) 
CC(C)N(C)c1c(CCC[C@@H](C)N(C)c2ncnc3c2cnn3C)cnc2c1cnn2C

>  <ref_pdb>  (45) 
m0194b

>  <distance_score>  (45) 
0.808514

>  <fragmenstein_runtime>  (45) 
8.601782

>  <name>  (45) 
PPFYAYKYVSWVMF-MRXNPFEDSA-N

>  <scratch_subdir>  (45) 
/opt/xchem-fragalysis-2/maxwin/BulkDock/SCRATCH/352916/C1817-P11

>  <ref_mols>  (45) 
m0194a,m0194b

>  <HIPPO Compound ID>  (45) 
1817

>  <energy_score>  (45) 
-36.235059

>  <alias>  (45) 
None

>  <original ID>  (45) 
PPFYAYKYVSWVMF-MRXNPFEDSA-N

>  <SLURM_JOB_ID>  (45) 
352916

>  <HIPPO Pose ID>  (45) 
1864

>  <fragmenstein_mode>  (45) 
expansion

>  <fragmenstein_outcome>  (45) 
acceptable

>  <score_inspiration>  (45) 
0.691072

>  <inchikey>  (45) 
PPFYAYKYVSWVMF-MRXNPFEDSA-N

>  <csv_name>  (45) 
TRIM21_iter1_fstein_split1000_batch000.csv

>  <fragmenstein_error>  (45) 
None

>  <subsites>  (45) 
None

>  <tags>  (45) 
Fragmenstein placed

$$$$
1877
     RDKit          3D

 15 16  0  0  0  0  0  0  0  0999 V2000
  -39.2609  -15.6714  -19.5583 C   0  0  0  0  0  0  0  0  0  0  0  0
  -38.8258  -14.6607  -20.6234 C   0  0  0  0  0  0  0  0  0  0  0  0
  -38.6361  -13.2714  -19.9981 C   0  0  0  0  0  0  0  0  0  0  0  0
  -39.7166  -14.6469  -21.8193 N   0  0  0  0  0  0  0  0  0  0  0  0
  -39.5637  -15.7738  -22.7393 C   0  0  0  0  0  0  0  0  0  0  0  0
  -41.0273  -14.2285  -21.5517 C   0  0  0  0  0  0  0  0  0  0  0  0
  -41.2044  -12.8955  -21.3302 N   0  0  0  0  0  0  0  0  0  0  0  0
  -42.4056  -12.4348  -20.9405 C   0  0  0  0  0  0  0  0  0  0  0  0
  -43.5358  -13.1278  -20.7599 N   0  0  0  0  0  0  0  0  0  0  0  0
  -43.3482  -14.4321  -21.0183 C   0  0  0  0  0  0  0  0  0  0  0  0
  -42.1720  -15.0439  -21.4267 C   0  0  0  0  0  0  0  0  0  0  0  0
  -42.5291  -16.4077  -21.5363 C   0  0  0  0  0  0  0  0  0  0  0  0
  -43.8078  -16.6504  -21.2207 N   0  0  0  0  0  0  0  0  0  0  0  0
  -44.2757  -15.4282  -20.8875 N   0  0  0  0  0  0  0  0  0  0  0  0
  -45.6248  -15.2924  -20.3980 C   0  0  0  0  0  0  0  0  0  0  0  0
  1  2  1  0
  2  3  1  0
  2  4  1  0
  4  5  1  0
  4  6  1  0
  6  7  2  0
  7  8  1  0
  8  9  2  0
  9 10  1  0
 10 11  2  0
 11 12  1  0
 12 13  2  0
 13 14  1  0
 14 15  1  0
 11  6  1  0
 14 10  1  0
M  END
>  <original SMILES>  (46) 
CC(C)N(C)c1ncnc2c1cnn2C

>  <ref_pdb>  (46) 
m0194a

>  <distance_score>  (46) 
0.978602

>  <fragmenstein_runtime>  (46) 
13.308141

>  <name>  (46) 
ACQZDWVVKAKBAO-UHFFFAOYSA-N

>  <scratch_subdir>  (46) 
/opt/xchem-fragalysis-2/maxwin/BulkDock/SCRATCH/352916/C10-P10

>  <ref_mols>  (46) 
m0194a,m0664a

>  <HIPPO Compound ID>  (46) 
10

>  <energy_score>  (46) 
-23.371939

>  <alias>  (46) 
None

>  <original ID>  (46) 
ACQZDWVVKAKBAO-UHFFFAOYSA-N

>  <SLURM_JOB_ID>  (46) 
352916

>  <HIPPO Pose ID>  (46) 
1877

>  <fragmenstein_mode>  (46) 
expansion

>  <fragmenstein_outcome>  (46) 
acceptable

>  <score_inspiration>  (46) 
0.874418

>  <inchikey>  (46) 
ACQZDWVVKAKBAO-UHFFFAOYSA-N

>  <csv_name>  (46) 
TRIM21_iter1_fstein_split1000_batch000.csv

>  <fragmenstein_error>  (46) 
None

>  <subsites>  (46) 
None

>  <tags>  (46) 
Fragmenstein placed

$$$$
1902
     RDKit          3D

 19 20  0  0  0  0  0  0  0  0999 V2000
  -50.5482   -8.0494  -27.3981 C   0  0  0  0  0  0  0  0  0  0  0  0
  -49.2132   -7.4686  -27.5364 C   0  0  0  0  0  0  0  0  0  0  0  0
  -48.1151   -6.9928  -27.6529 C   0  0  0  0  0  0  0  0  0  0  0  0
  -46.7582   -6.3845  -27.6947 C   0  0  2  0  0  0  0  0  0  0  0  0
  -45.9594   -7.3181  -27.0158 O   0  0  0  0  0  0  0  0  0  0  0  0
  -46.8778   -5.0767  -26.9578 C   0  0  0  0  0  0  0  0  0  0  0  0
  -47.9415   -4.1487  -26.8477 C   0  0  0  0  0  0  0  0  0  0  0  0
  -49.2337   -4.1072  -27.6106 C   0  0  0  0  0  0  0  0  0  0  0  0
  -47.7307   -2.9291  -25.6073 S   0  0  0  0  0  0  0  0  0  0  0  0
  -46.1383   -3.4368  -25.4074 N   0  0  0  0  0  0  0  0  0  0  0  0
  -45.3383   -2.8342  -24.6462 O   0  0  0  0  0  0  0  0  0  0  0  0
  -45.8157   -4.6006  -26.2441 N   0  0  0  0  0  0  0  0  0  0  0  0
  -44.6284   -5.0221  -26.2248 O   0  0  0  0  0  0  0  0  0  0  0  0
  -46.3210   -6.2147  -29.0821 N   0  0  0  0  0  0  0  0  0  0  0  0
  -45.0754   -5.4402  -29.2922 C   0  0  0  0  0  0  0  0  0  0  0  0
  -43.7474   -6.1828  -29.0739 C   0  0  0  0  0  0  0  0  0  0  0  0
  -43.6785   -7.3419  -29.9114 O   0  0  0  0  0  0  0  0  0  0  0  0
  -44.7797   -8.2102  -29.6198 C   0  0  0  0  0  0  0  0  0  0  0  0
  -46.1398   -7.5006  -29.8124 C   0  0  0  0  0  0  0  0  0  0  0  0
  1  2  1  0
  2  3  3  0
  3  4  1  0
  4  5  1  1
  4  6  1  0
  6  7  2  0
  7  8  1  0
  7  9  1  0
  9 10  1  0
 10 11  1  0
 10 12  2  0
 12 13  1  0
  4 14  1  0
 14 15  1  0
 15 16  1  0
 16 17  1  0
 17 18  1  0
 18 19  1  0
 12  6  1  0
 19 14  1  0
M  CHG  4  10   1  11  -1  12   1  13  -1
M  END
>  <original SMILES>  (47) 
CC#C[C@](O)(c1c(C)s[n+]([O-])[n+]1[O-])N1CCOCC1

>  <ref_pdb>  (47) 
m0199a

>  <distance_score>  (47) 
0.86419

>  <fragmenstein_runtime>  (47) 
1.177939

>  <name>  (47) 
VXKVCCRDTNBKOW-NSHDSACASA-N

>  <scratch_subdir>  (47) 
/opt/xchem-fragalysis-2/maxwin/BulkDock/SCRATCH/352916/C1847-P12

>  <ref_mols>  (47) 
m0199a,m0310a

>  <HIPPO Compound ID>  (47) 
1847

>  <energy_score>  (47) 
-78.333619

>  <alias>  (47) 
None

>  <original ID>  (47) 
VXKVCCRDTNBKOW-NSHDSACASA-N

>  <SLURM_JOB_ID>  (47) 
352916

>  <HIPPO Pose ID>  (47) 
1902

>  <fragmenstein_mode>  (47) 
expansion

>  <fragmenstein_outcome>  (47) 
acceptable

>  <score_inspiration>  (47) 
0.434885

>  <inchikey>  (47) 
VXKVCCRDTNBKOW-NSHDSACASA-N

>  <csv_name>  (47) 
TRIM21_iter1_fstein_split1000_batch000.csv

>  <fragmenstein_error>  (47) 
None

>  <subsites>  (47) 
None

>  <tags>  (47) 
Fragmenstein placed

$$$$
1903
     RDKit          3D

 19 20  0  0  0  0  0  0  0  0999 V2000
  -50.5600   -8.0936  -27.3472 C   0  0  0  0  0  0  0  0  0  0  0  0
  -49.2371   -7.4932  -27.5155 C   0  0  0  0  0  0  0  0  0  0  0  0
  -48.1489   -7.0011  -27.6542 C   0  0  0  0  0  0  0  0  0  0  0  0
  -46.8032   -6.3712  -27.7199 C   0  0  2  0  0  0  0  0  0  0  0  0
  -45.9832   -7.2841  -27.0401 O   0  0  0  0  0  0  0  0  0  0  0  0
  -46.9383   -5.0565  -26.9972 C   0  0  0  0  0  0  0  0  0  0  0  0
  -48.0163   -4.1449  -26.8896 C   0  0  0  0  0  0  0  0  0  0  0  0
  -49.3142   -4.1327  -27.6438 C   0  0  0  0  0  0  0  0  0  0  0  0
  -47.8180   -2.9094  -25.6626 S   0  0  0  0  0  0  0  0  0  0  0  0
  -46.2193   -3.3946  -25.4604 N   0  0  0  0  0  0  0  0  0  0  0  0
  -45.4209   -2.7640  -24.7209 O   0  0  0  0  0  0  0  0  0  0  0  0
  -45.8811   -4.5548  -26.2949 N   0  0  0  0  0  0  0  0  0  0  0  0
  -44.6847   -4.9472  -26.2889 O   0  0  0  0  0  0  0  0  0  0  0  0
  -46.3830   -6.2140  -29.1137 N   0  0  0  0  0  0  0  0  0  0  0  0
  -45.1516   -5.4244  -29.3482 C   0  0  0  0  0  0  0  0  0  0  0  0
  -43.8067   -6.1434  -29.1539 C   0  0  0  0  0  0  0  0  0  0  0  0
  -43.7400   -7.3129  -29.9762 O   0  0  0  0  0  0  0  0  0  0  0  0
  -44.8194   -8.1939  -29.6457 C   0  0  0  0  0  0  0  0  0  0  0  0
  -46.1927   -7.5078  -29.8281 C   0  0  0  0  0  0  0  0  0  0  0  0
  1  2  1  0
  2  3  3  0
  3  4  1  0
  4  5  1  1
  4  6  1  0
  6  7  2  0
  7  8  1  0
  7  9  1  0
  9 10  1  0
 10 11  1  0
 10 12  2  0
 12 13  1  0
  4 14  1  0
 14 15  1  0
 15 16  1  0
 16 17  1  0
 17 18  1  0
 18 19  1  0
 12  6  1  0
 19 14  1  0
M  CHG  4  10   1  11  -1  12   1  13  -1
M  END
>  <original SMILES>  (48) 
CC#C[C@](O)(c1c(C)s[n+]([O-])[n+]1[O-])N1CCOCC1

>  <ref_pdb>  (48) 
m0310a

>  <distance_score>  (48) 
0.889537

>  <fragmenstein_runtime>  (48) 
1.249109

>  <name>  (48) 
VXKVCCRDTNBKOW-NSHDSACASA-N

>  <scratch_subdir>  (48) 
/opt/xchem-fragalysis-2/maxwin/BulkDock/SCRATCH/352916/C1847-P25

>  <ref_mols>  (48) 
m0199a,m0310a

>  <HIPPO Compound ID>  (48) 
1847

>  <energy_score>  (48) 
-78.171932

>  <alias>  (48) 
None

>  <original ID>  (48) 
VXKVCCRDTNBKOW-NSHDSACASA-N

>  <SLURM_JOB_ID>  (48) 
352916

>  <HIPPO Pose ID>  (48) 
1903

>  <fragmenstein_mode>  (48) 
expansion

>  <fragmenstein_outcome>  (48) 
acceptable

>  <score_inspiration>  (48) 
0.42368

>  <inchikey>  (48) 
VXKVCCRDTNBKOW-NSHDSACASA-N

>  <csv_name>  (48) 
TRIM21_iter1_fstein_split1000_batch000.csv

>  <fragmenstein_error>  (48) 
None

>  <subsites>  (48) 
None

>  <tags>  (48) 
Fragmenstein placed

$$$$
1910
     RDKit          3D

 18 19  0  0  0  0  0  0  0  0999 V2000
  -44.8268   -0.7880  -23.4612 C   0  0  0  0  0  0  0  0  0  0  0  0
  -45.2535   -2.5140  -23.4448 S   0  0  0  0  0  0  0  0  0  0  0  0
  -46.5265   -2.6529  -22.7813 O   0  0  0  0  0  0  0  0  0  0  0  0
  -44.0946   -3.2537  -22.9801 O   0  0  0  0  0  0  0  0  0  0  0  0
  -45.3580   -2.7887  -25.0874 N   0  0  0  0  0  0  0  0  0  0  0  0
  -46.4095   -3.6765  -25.5285 C   0  0  0  0  0  0  0  0  0  0  0  0
  -46.0790   -4.6665  -26.3228 N   0  0  0  0  0  0  0  0  0  0  0  0
  -47.2460   -5.2204  -26.8715 C   0  0  0  0  0  0  0  0  0  0  0  0
  -47.2635   -6.2759  -27.9123 C   0  0  0  0  0  0  0  0  0  0  0  0
  -48.2888   -6.5774  -28.4011 O   0  0  0  0  0  0  0  0  0  0  0  0
  -45.8698   -6.7668  -28.1930 N   0  0  0  0  0  0  0  0  0  0  0  0
  -45.1878   -5.9157  -29.2746 C   0  0  0  0  0  0  0  0  0  0  0  0
  -43.6472   -5.9185  -29.2682 C   0  0  0  0  0  0  0  0  0  0  0  0
  -43.1770   -7.1586  -29.7818 O   0  0  0  0  0  0  0  0  0  0  0  0
  -43.8851   -8.1846  -29.1051 C   0  0  0  0  0  0  0  0  0  0  0  0
  -45.3785   -7.8620  -29.1093 C   0  0  0  0  0  0  0  0  0  0  0  0
  -48.4166   -4.6395  -26.4104 C   0  0  0  0  0  0  0  0  0  0  0  0
  -48.0711   -3.3470  -25.3574 S   0  0  0  0  0  0  0  0  0  0  0  0
  1  2  1  0
  2  3  2  0
  2  4  2  0
  2  5  1  0
  5  6  1  0
  6  7  2  0
  7  8  1  0
  8  9  1  0
  9 10  2  0
  9 11  1  0
 11 12  1  0
 12 13  1  0
 13 14  1  0
 14 15  1  0
 15 16  1  0
  8 17  2  0
 17 18  1  0
 18  6  1  0
 16 11  1  0
M  END
>  <original SMILES>  (49) 
CS(=O)(=O)Nc1nc(C(=O)N2CCOCC2)cs1

>  <ref_pdb>  (49) 
m0199a

>  <distance_score>  (49) 
0.75024

>  <fragmenstein_runtime>  (49) 
1.526808

>  <name>  (49) 
CUKFANSMVXVPFG-UHFFFAOYSA-N

>  <scratch_subdir>  (49) 
/opt/xchem-fragalysis-2/maxwin/BulkDock/SCRATCH/352916/C1858-P12

>  <ref_mols>  (49) 
m0199a,m0470a

>  <HIPPO Compound ID>  (49) 
1858

>  <energy_score>  (49) 
-35.074046

>  <alias>  (49) 
None

>  <original ID>  (49) 
CUKFANSMVXVPFG-UHFFFAOYSA-N

>  <SLURM_JOB_ID>  (49) 
352916

>  <HIPPO Pose ID>  (49) 
1910

>  <fragmenstein_mode>  (49) 
expansion

>  <fragmenstein_outcome>  (49) 
acceptable

>  <score_inspiration>  (49) 
0.785501

>  <inchikey>  (49) 
CUKFANSMVXVPFG-UHFFFAOYSA-N

>  <csv_name>  (49) 
TRIM21_iter1_fstein_split1000_batch000.csv

>  <fragmenstein_error>  (49) 
None

>  <subsites>  (49) 
None

>  <tags>  (49) 
Fragmenstein placed

$$$$
1911
     RDKit          3D

 18 19  0  0  0  0  0  0  0  0999 V2000
  -44.7503   -0.7514  -23.4701 C   0  0  0  0  0  0  0  0  0  0  0  0
  -45.2381   -2.4619  -23.4502 S   0  0  0  0  0  0  0  0  0  0  0  0
  -46.5137   -2.5525  -22.7816 O   0  0  0  0  0  0  0  0  0  0  0  0
  -44.1079   -3.2456  -22.9856 O   0  0  0  0  0  0  0  0  0  0  0  0
  -45.3694   -2.7287  -25.0950 N   0  0  0  0  0  0  0  0  0  0  0  0
  -46.3910   -3.6635  -25.5113 C   0  0  0  0  0  0  0  0  0  0  0  0
  -46.0393   -4.6565  -26.2940 N   0  0  0  0  0  0  0  0  0  0  0  0
  -47.1957   -5.2637  -26.8085 C   0  0  0  0  0  0  0  0  0  0  0  0
  -47.2013   -6.3474  -27.8214 C   0  0  0  0  0  0  0  0  0  0  0  0
  -48.2297   -6.6961  -28.2710 O   0  0  0  0  0  0  0  0  0  0  0  0
  -45.8004   -6.8010  -28.1292 N   0  0  0  0  0  0  0  0  0  0  0  0
  -45.1781   -5.9600  -29.2546 C   0  0  0  0  0  0  0  0  0  0  0  0
  -43.6385   -5.9186  -29.3057 C   0  0  0  0  0  0  0  0  0  0  0  0
  -43.1526   -7.1569  -29.8088 O   0  0  0  0  0  0  0  0  0  0  0  0
  -43.7971   -8.1828  -29.0723 C   0  0  0  0  0  0  0  0  0  0  0  0
  -45.2992   -7.9067  -29.0287 C   0  0  0  0  0  0  0  0  0  0  0  0
  -48.3777   -4.7115  -26.3404 C   0  0  0  0  0  0  0  0  0  0  0  0
  -48.0606   -3.3869  -25.3203 S   0  0  0  0  0  0  0  0  0  0  0  0
  1  2  1  0
  2  3  2  0
  2  4  2  0
  2  5  1  0
  5  6  1  0
  6  7  2  0
  7  8  1  0
  8  9  1  0
  9 10  2  0
  9 11  1  0
 11 12  1  0
 12 13  1  0
 13 14  1  0
 14 15  1  0
 15 16  1  0
  8 17  2  0
 17 18  1  0
 18  6  1  0
 16 11  1  0
M  END
>  <original SMILES>  (50) 
CS(=O)(=O)Nc1nc(C(=O)N2CCOCC2)cs1

>  <ref_pdb>  (50) 
m0470a

>  <distance_score>  (50) 
0.741538

>  <fragmenstein_runtime>  (50) 
1.669405

>  <name>  (50) 
CUKFANSMVXVPFG-UHFFFAOYSA-N

>  <scratch_subdir>  (50) 
/opt/xchem-fragalysis-2/maxwin/BulkDock/SCRATCH/352916/C1858-P42

>  <ref_mols>  (50) 
m0199a,m0470a

>  <HIPPO Compound ID>  (50) 
1858

>  <energy_score>  (50) 
-35.065257

>  <alias>  (50) 
None

>  <original ID>  (50) 
CUKFANSMVXVPFG-UHFFFAOYSA-N

>  <SLURM_JOB_ID>  (50) 
352916

>  <HIPPO Pose ID>  (50) 
1911

>  <fragmenstein_mode>  (50) 
expansion

>  <fragmenstein_outcome>  (50) 
acceptable

>  <score_inspiration>  (50) 
0.790284

>  <inchikey>  (50) 
CUKFANSMVXVPFG-UHFFFAOYSA-N

>  <csv_name>  (50) 
TRIM21_iter1_fstein_split1000_batch000.csv

>  <fragmenstein_error>  (50) 
None

>  <subsites>  (50) 
None

>  <tags>  (50) 
Fragmenstein placed

$$$$
1936
     RDKit          3D

 14 14  0  0  0  0  0  0  0  0999 V2000
  -47.3872   -5.5463  -25.1148 C   0  0  0  0  0  0  0  0  0  0  0  0
  -47.1003   -4.7723  -26.3834 C   0  0  1  0  0  0  0  0  0  0  0  0
  -46.5833   -3.3791  -25.9900 C   0  0  0  0  0  0  0  0  0  0  0  0
  -45.2862   -3.3232  -25.2755 N   0  0  0  0  0  0  0  0  0  0  0  0
  -45.1637   -3.0459  -23.6236 S   0  0  0  0  0  0  0  0  0  0  0  0
  -46.3226   -1.7405  -23.2695 C   0  0  0  0  0  0  0  0  0  0  0  0
  -43.8307   -2.5282  -23.3911 O   0  0  0  0  0  0  0  0  0  0  0  0
  -45.5622   -4.2312  -22.9047 O   0  0  0  0  0  0  0  0  0  0  0  0
  -46.3263   -5.5818  -27.4602 C   0  0  1  0  0  0  0  0  0  0  0  0
  -46.4774   -7.0536  -27.2783 N   0  0  0  0  0  0  0  0  0  0  0  0
  -46.8587   -5.3216  -28.8762 C   0  0  0  0  0  0  0  0  0  0  0  0
  -45.7249   -5.7751  -29.7934 C   0  0  0  0  0  0  0  0  0  0  0  0
  -44.5054   -5.8322  -28.9698 N   0  0  0  0  0  0  0  0  0  0  0  0
  -44.8518   -5.1942  -27.6839 C   0  0  0  0  0  0  0  0  0  0  0  0
  2  1  1  1
  2  3  1  0
  3  4  1  0
  4  5  1  0
  5  6  1  0
  5  7  2  0
  5  8  2  0
  2  9  1  0
  9 10  1  1
  9 11  1  0
 11 12  1  0
 12 13  1  0
 13 14  1  0
 14  9  1  0
M  END
>  <original SMILES>  (51) 
C[C@@H](CNS(C)(=O)=O)[C@@]1(N)CCNC1

>  <ref_pdb>  (51) 
m0219a

>  <distance_score>  (51) 
0.868866

>  <fragmenstein_runtime>  (51) 
2.46543

>  <name>  (51) 
ABEQUGHHNZSYDV-JGVFFNPUSA-N

>  <scratch_subdir>  (51) 
/opt/xchem-fragalysis-2/maxwin/BulkDock/SCRATCH/352916/C1912-P16

>  <ref_mols>  (51) 
m0219a,m0457a

>  <HIPPO Compound ID>  (51) 
1912

>  <energy_score>  (51) 
-32.893389

>  <alias>  (51) 
None

>  <original ID>  (51) 
ABEQUGHHNZSYDV-JGVFFNPUSA-N

>  <SLURM_JOB_ID>  (51) 
352916

>  <HIPPO Pose ID>  (51) 
1936

>  <fragmenstein_mode>  (51) 
expansion

>  <fragmenstein_outcome>  (51) 
acceptable

>  <score_inspiration>  (51) 
0.61422

>  <inchikey>  (51) 
ABEQUGHHNZSYDV-JGVFFNPUSA-N

>  <csv_name>  (51) 
TRIM21_iter1_fstein_split1000_batch000.csv

>  <fragmenstein_error>  (51) 
None

>  <subsites>  (51) 
None

>  <tags>  (51) 
Fragmenstein placed

$$$$
1937
     RDKit          3D

 14 14  0  0  0  0  0  0  0  0999 V2000
  -47.4625   -5.7052  -25.0025 C   0  0  0  0  0  0  0  0  0  0  0  0
  -47.3391   -4.8597  -26.2559 C   0  0  1  0  0  0  0  0  0  0  0  0
  -46.9291   -3.4364  -25.8340 C   0  0  0  0  0  0  0  0  0  0  0  0
  -45.5859   -3.2871  -25.2244 N   0  0  0  0  0  0  0  0  0  0  0  0
  -45.3681   -3.0035  -23.5780 S   0  0  0  0  0  0  0  0  0  0  0  0
  -46.4887   -1.6785  -23.1834 C   0  0  0  0  0  0  0  0  0  0  0  0
  -44.0186   -2.4987  -23.4247 O   0  0  0  0  0  0  0  0  0  0  0  0
  -45.7517   -4.1791  -22.8365 O   0  0  0  0  0  0  0  0  0  0  0  0
  -46.5870   -5.5637  -27.4192 C   0  0  1  0  0  0  0  0  0  0  0  0
  -46.6764   -7.0493  -27.3260 N   0  0  0  0  0  0  0  0  0  0  0  0
  -47.1927   -5.2454  -28.7934 C   0  0  0  0  0  0  0  0  0  0  0  0
  -46.0855   -5.6106  -29.7824 C   0  0  0  0  0  0  0  0  0  0  0  0
  -44.8310   -5.6622  -29.0137 N   0  0  0  0  0  0  0  0  0  0  0  0
  -45.1437   -5.1019  -27.6858 C   0  0  0  0  0  0  0  0  0  0  0  0
  2  1  1  1
  2  3  1  0
  3  4  1  0
  4  5  1  0
  5  6  1  0
  5  7  2  0
  5  8  2  0
  2  9  1  0
  9 10  1  1
  9 11  1  0
 11 12  1  0
 12 13  1  0
 13 14  1  0
 14  9  1  0
M  END
>  <original SMILES>  (52) 
C[C@@H](CNS(C)(=O)=O)[C@@]1(N)CCNC1

>  <ref_pdb>  (52) 
m0457a

>  <distance_score>  (52) 
0.926657

>  <fragmenstein_runtime>  (52) 
2.431865

>  <name>  (52) 
ABEQUGHHNZSYDV-JGVFFNPUSA-N

>  <scratch_subdir>  (52) 
/opt/xchem-fragalysis-2/maxwin/BulkDock/SCRATCH/352916/C1912-P39

>  <ref_mols>  (52) 
m0219a,m0457a

>  <HIPPO Compound ID>  (52) 
1912

>  <energy_score>  (52) 
-34.268297

>  <alias>  (52) 
None

>  <original ID>  (52) 
ABEQUGHHNZSYDV-JGVFFNPUSA-N

>  <SLURM_JOB_ID>  (52) 
352916

>  <HIPPO Pose ID>  (52) 
1937

>  <fragmenstein_mode>  (52) 
expansion

>  <fragmenstein_outcome>  (52) 
acceptable

>  <score_inspiration>  (52) 
0.598204

>  <inchikey>  (52) 
ABEQUGHHNZSYDV-JGVFFNPUSA-N

>  <csv_name>  (52) 
TRIM21_iter1_fstein_split1000_batch000.csv

>  <fragmenstein_error>  (52) 
None

>  <subsites>  (52) 
None

>  <tags>  (52) 
Fragmenstein placed

$$$$
1940
     RDKit          3D

 16 16  0  0  0  0  0  0  0  0999 V2000
  -46.7344   -8.7409  -28.3111 C   0  0  0  0  0  0  0  0  0  0  0  0
  -47.3296   -7.4617  -28.8867 C   0  0  0  0  0  0  0  0  0  0  0  0
  -46.5771   -6.2765  -28.3579 C   0  0  0  0  0  0  0  0  0  0  0  0
  -45.2968   -6.0792  -28.8766 C   0  0  0  0  0  0  0  0  0  0  0  0
  -44.3997   -5.2325  -28.3649 N   0  0  0  0  0  0  0  0  0  0  0  0
  -44.7934   -4.5167  -27.2959 C   0  0  0  0  0  0  0  0  0  0  0  0
  -46.0600   -4.5830  -26.7084 C   0  0  0  0  0  0  0  0  0  0  0  0
  -46.3684   -3.7807  -25.4679 C   0  0  0  0  0  0  0  0  0  0  0  0
  -45.2755   -2.9274  -24.9939 N   0  0  0  0  0  0  0  0  0  0  0  0
  -45.0761   -2.6496  -23.3705 S   0  0  0  0  0  0  0  0  0  0  0  0
  -46.6267   -1.9241  -22.8850 C   0  0  0  0  0  0  0  0  0  0  0  0
  -44.0444   -1.6446  -23.2478 O   0  0  0  0  0  0  0  0  0  0  0  0
  -44.9125   -3.9150  -22.6869 O   0  0  0  0  0  0  0  0  0  0  0  0
  -47.0026   -5.4743  -27.2777 C   0  0  0  0  0  0  0  0  0  0  0  0
  -48.4179   -5.5780  -26.7349 C   0  0  0  0  0  0  0  0  0  0  0  0
  -49.4027   -4.6699  -27.4556 C   0  0  0  0  0  0  0  0  0  0  0  0
  1  2  1  0
  2  3  1  0
  3  4  2  0
  4  5  1  0
  5  6  2  0
  6  7  1  0
  7  8  1  0
  8  9  1  0
  9 10  1  0
 10 11  1  0
 10 12  2  0
 10 13  2  0
  7 14  2  0
 14 15  1  0
 15 16  1  0
 14  3  1  0
M  END
>  <original SMILES>  (53) 
CCc1cncc(CNS(C)(=O)=O)c1CC

>  <ref_pdb>  (53) 
m0219a

>  <distance_score>  (53) 
0.962731

>  <fragmenstein_runtime>  (53) 
2.220428

>  <name>  (53) 
IITNJBRAFONPIE-UHFFFAOYSA-N

>  <scratch_subdir>  (53) 
/opt/xchem-fragalysis-2/maxwin/BulkDock/SCRATCH/352916/C1914-P16

>  <ref_mols>  (53) 
m0219a,m0469a

>  <HIPPO Compound ID>  (53) 
1914

>  <energy_score>  (53) 
-36.597496

>  <alias>  (53) 
None

>  <original ID>  (53) 
IITNJBRAFONPIE-UHFFFAOYSA-N

>  <SLURM_JOB_ID>  (53) 
352916

>  <HIPPO Pose ID>  (53) 
1940

>  <fragmenstein_mode>  (53) 
expansion

>  <fragmenstein_outcome>  (53) 
acceptable

>  <score_inspiration>  (53) 
0.560808

>  <inchikey>  (53) 
IITNJBRAFONPIE-UHFFFAOYSA-N

>  <csv_name>  (53) 
TRIM21_iter1_fstein_split1000_batch000.csv

>  <fragmenstein_error>  (53) 
None

>  <subsites>  (53) 
None

>  <tags>  (53) 
Fragmenstein placed

$$$$
1941
     RDKit          3D

 16 16  0  0  0  0  0  0  0  0999 V2000
  -47.0509   -8.9205  -28.3660 C   0  0  0  0  0  0  0  0  0  0  0  0
  -47.7032   -7.6467  -28.8954 C   0  0  0  0  0  0  0  0  0  0  0  0
  -46.9599   -6.4579  -28.3658 C   0  0  0  0  0  0  0  0  0  0  0  0
  -45.6802   -6.2753  -28.8910 C   0  0  0  0  0  0  0  0  0  0  0  0
  -44.7710   -5.4718  -28.3509 N   0  0  0  0  0  0  0  0  0  0  0  0
  -45.1666   -4.7959  -27.2583 C   0  0  0  0  0  0  0  0  0  0  0  0
  -46.4290   -4.8157  -26.6701 C   0  0  0  0  0  0  0  0  0  0  0  0
  -46.7132   -3.9995  -25.4239 C   0  0  0  0  0  0  0  0  0  0  0  0
  -45.5430   -3.3134  -24.8335 N   0  0  0  0  0  0  0  0  0  0  0  0
  -45.5110   -3.0074  -23.1986 S   0  0  0  0  0  0  0  0  0  0  0  0
  -46.8011   -1.8070  -22.9659 C   0  0  0  0  0  0  0  0  0  0  0  0
  -44.2256   -2.3955  -22.9160 O   0  0  0  0  0  0  0  0  0  0  0  0
  -45.8460   -4.2134  -22.4954 O   0  0  0  0  0  0  0  0  0  0  0  0
  -47.3822   -5.6610  -27.2738 C   0  0  0  0  0  0  0  0  0  0  0  0
  -48.8080   -5.7151  -26.7638 C   0  0  0  0  0  0  0  0  0  0  0  0
  -49.7146   -4.7127  -27.4599 C   0  0  0  0  0  0  0  0  0  0  0  0
  1  2  1  0
  2  3  1  0
  3  4  2  0
  4  5  1  0
  5  6  2  0
  6  7  1  0
  7  8  1  0
  8  9  1  0
  9 10  1  0
 10 11  1  0
 10 12  2  0
 10 13  2  0
  7 14  2  0
 14 15  1  0
 15 16  1  0
 14  3  1  0
M  END
>  <original SMILES>  (54) 
CCc1cncc(CNS(C)(=O)=O)c1CC

>  <ref_pdb>  (54) 
m0469a

>  <distance_score>  (54) 
0.954351

>  <fragmenstein_runtime>  (54) 
2.107373

>  <name>  (54) 
IITNJBRAFONPIE-UHFFFAOYSA-N

>  <scratch_subdir>  (54) 
/opt/xchem-fragalysis-2/maxwin/BulkDock/SCRATCH/352916/C1914-P41

>  <ref_mols>  (54) 
m0219a,m0469a

>  <HIPPO Compound ID>  (54) 
1914

>  <energy_score>  (54) 
-33.903719

>  <alias>  (54) 
None

>  <original ID>  (54) 
IITNJBRAFONPIE-UHFFFAOYSA-N

>  <SLURM_JOB_ID>  (54) 
352916

>  <HIPPO Pose ID>  (54) 
1941

>  <fragmenstein_mode>  (54) 
expansion

>  <fragmenstein_outcome>  (54) 
acceptable

>  <score_inspiration>  (54) 
0.553924

>  <inchikey>  (54) 
IITNJBRAFONPIE-UHFFFAOYSA-N

>  <csv_name>  (54) 
TRIM21_iter1_fstein_split1000_batch000.csv

>  <fragmenstein_error>  (54) 
None

>  <subsites>  (54) 
None

>  <tags>  (54) 
Fragmenstein placed

$$$$
1974
     RDKit          3D

 17 18  0  0  0  0  0  0  0  0999 V2000
  -44.3208   -8.4570  -29.0691 C   0  0  0  0  0  0  0  0  0  0  0  0
  -44.2857   -7.1660  -29.8744 C   0  0  2  0  0  0  0  0  0  0  0  0
  -43.4099   -6.0837  -29.2469 C   0  0  0  0  0  0  0  0  0  0  0  0
  -44.0211   -5.3501  -28.0498 C   0  0  0  0  0  0  0  0  0  0  0  0
  -45.5194   -5.3603  -27.9057 C   0  0  0  0  0  0  0  0  0  0  0  0
  -46.1820   -4.7564  -26.8022 C   0  0  0  0  0  0  0  0  0  0  0  0
  -45.4247   -3.9391  -25.7632 C   0  0  0  0  0  0  0  0  0  0  0  0
  -46.2399   -3.4511  -24.6340 N   0  0  0  0  0  0  0  0  0  0  0  0
  -45.4816   -2.7612  -23.6166 C   0  0  0  0  0  0  0  0  0  0  0  0
  -46.4358   -1.9904  -22.7082 C   0  0  0  0  0  0  0  0  0  0  0  0
  -44.8122   -3.7154  -22.8305 O   0  0  0  0  0  0  0  0  0  0  0  0
  -44.5380   -1.9073  -24.1967 O   0  0  0  0  0  0  0  0  0  0  0  0
  -47.5710   -4.8994  -26.7225 C   0  0  0  0  0  0  0  0  0  0  0  0
  -48.2383   -5.5906  -27.7154 C   0  0  0  0  0  0  0  0  0  0  0  0
  -47.6378   -6.1384  -28.7848 N   0  0  0  0  0  0  0  0  0  0  0  0
  -46.2948   -6.0187  -28.8681 C   0  0  0  0  0  0  0  0  0  0  0  0
  -45.6793   -6.6042  -30.1086 C   0  0  0  0  0  0  0  0  0  0  0  0
  2  1  1  1
  2  3  1  0
  3  4  1  0
  4  5  1  0
  5  6  2  0
  6  7  1  0
  7  8  1  0
  8  9  1  0
  9 10  1  0
  9 11  1  0
  9 12  1  0
  6 13  1  0
 13 14  2  0
 14 15  1  0
 15 16  2  0
 16 17  1  0
 17  2  1  0
 16  5  1  0
M  END
>  <original SMILES>  (55) 
C[C@@H]1CCc2c(CNC(C)(O)O)ccnc2C1

>  <ref_pdb>  (55) 
m0238a

>  <distance_score>  (55) 
0.97948

>  <fragmenstein_runtime>  (55) 
2.539448

>  <name>  (55) 
PFPHMOGKQCKLRR-SECBINFHSA-N

>  <scratch_subdir>  (55) 
/opt/xchem-fragalysis-2/maxwin/BulkDock/SCRATCH/352916/C1951-P18

>  <ref_mols>  (55) 
m0238a,m0404a

>  <HIPPO Compound ID>  (55) 
1951

>  <energy_score>  (55) 
-25.188225

>  <alias>  (55) 
None

>  <original ID>  (55) 
PFPHMOGKQCKLRR-SECBINFHSA-N

>  <SLURM_JOB_ID>  (55) 
352916

>  <HIPPO Pose ID>  (55) 
1974

>  <fragmenstein_mode>  (55) 
expansion

>  <fragmenstein_outcome>  (55) 
acceptable

>  <score_inspiration>  (55) 
0.562529

>  <inchikey>  (55) 
PFPHMOGKQCKLRR-SECBINFHSA-N

>  <csv_name>  (55) 
TRIM21_iter1_fstein_split1000_batch000.csv

>  <fragmenstein_error>  (55) 
None

>  <subsites>  (55) 
None

>  <tags>  (55) 
Fragmenstein placed

$$$$
1975
     RDKit          3D

 17 18  0  0  0  0  0  0  0  0999 V2000
  -44.5358   -8.6842  -29.4223 C   0  0  0  0  0  0  0  0  0  0  0  0
  -44.2177   -7.2258  -29.7517 C   0  0  2  0  0  0  0  0  0  0  0  0
  -43.3431   -6.5870  -28.6559 C   0  0  0  0  0  0  0  0  0  0  0  0
  -43.8920   -5.3131  -28.0101 C   0  0  0  0  0  0  0  0  0  0  0  0
  -45.3754   -5.3450  -27.7829 C   0  0  0  0  0  0  0  0  0  0  0  0
  -46.0283   -4.7223  -26.7006 C   0  0  0  0  0  0  0  0  0  0  0  0
  -45.2543   -3.8857  -25.6992 C   0  0  0  0  0  0  0  0  0  0  0  0
  -46.0720   -3.2809  -24.6575 N   0  0  0  0  0  0  0  0  0  0  0  0
  -45.3776   -2.5420  -23.6469 C   0  0  0  0  0  0  0  0  0  0  0  0
  -46.3459   -2.2244  -22.5181 C   0  0  0  0  0  0  0  0  0  0  0  0
  -44.2648   -3.2247  -23.1164 O   0  0  0  0  0  0  0  0  0  0  0  0
  -44.8778   -1.3345  -24.1484 O   0  0  0  0  0  0  0  0  0  0  0  0
  -47.4137   -4.8973  -26.5983 C   0  0  0  0  0  0  0  0  0  0  0  0
  -48.0859   -5.6015  -27.5824 C   0  0  0  0  0  0  0  0  0  0  0  0
  -47.4940   -6.1249  -28.6692 N   0  0  0  0  0  0  0  0  0  0  0  0
  -46.1562   -5.9789  -28.7554 C   0  0  0  0  0  0  0  0  0  0  0  0
  -45.5035   -6.4563  -30.0200 C   0  0  0  0  0  0  0  0  0  0  0  0
  2  1  1  1
  2  3  1  0
  3  4  1  0
  4  5  1  0
  5  6  2  0
  6  7  1  0
  7  8  1  0
  8  9  1  0
  9 10  1  0
  9 11  1  0
  9 12  1  0
  6 13  1  0
 13 14  2  0
 14 15  1  0
 15 16  2  0
 16 17  1  0
 17  2  1  0
 16  5  1  0
M  END
>  <original SMILES>  (56) 
C[C@@H]1CCc2c(CNC(C)(O)O)ccnc2C1

>  <ref_pdb>  (56) 
m0404a

>  <distance_score>  (56) 
0.939122

>  <fragmenstein_runtime>  (56) 
2.041966

>  <name>  (56) 
PFPHMOGKQCKLRR-SECBINFHSA-N

>  <scratch_subdir>  (56) 
/opt/xchem-fragalysis-2/maxwin/BulkDock/SCRATCH/352916/C1951-P34

>  <ref_mols>  (56) 
m0238a,m0404a

>  <HIPPO Compound ID>  (56) 
1951

>  <energy_score>  (56) 
-17.145559

>  <alias>  (56) 
None

>  <original ID>  (56) 
PFPHMOGKQCKLRR-SECBINFHSA-N

>  <SLURM_JOB_ID>  (56) 
352916

>  <HIPPO Pose ID>  (56) 
1975

>  <fragmenstein_mode>  (56) 
expansion

>  <fragmenstein_outcome>  (56) 
acceptable

>  <score_inspiration>  (56) 
0.59931

>  <inchikey>  (56) 
PFPHMOGKQCKLRR-SECBINFHSA-N

>  <csv_name>  (56) 
TRIM21_iter1_fstein_split1000_batch000.csv

>  <fragmenstein_error>  (56) 
None

>  <subsites>  (56) 
None

>  <tags>  (56) 
Fragmenstein placed

$$$$
1980
     RDKit          3D

 23 24  0  0  0  0  0  0  0  0999 V2000
  -46.9911   -2.4003  -22.5555 C   0  0  0  0  0  0  0  0  0  0  0  0
  -45.8311   -3.1690  -23.1471 C   0  0  0  0  0  0  0  0  0  0  0  0
  -44.8551   -3.4361  -22.5630 O   0  0  0  0  0  0  0  0  0  0  0  0
  -46.2049   -3.3937  -24.6357 N   0  0  0  0  0  0  0  0  0  0  0  0
  -45.4244   -3.9028  -25.7242 C   0  0  0  0  0  0  0  0  0  0  0  0
  -46.0028   -5.0862  -26.4896 C   0  0  1  0  0  0  0  0  0  0  0  0
  -47.3466   -4.7479  -27.1524 C   0  0  0  0  0  0  0  0  0  0  0  0
  -47.8766   -5.9150  -28.0372 C   0  0  2  0  0  0  0  0  0  0  0  0
  -46.8503   -6.2823  -29.0487 N   0  0  0  0  0  0  0  0  0  0  0  0
  -45.5827   -6.6389  -28.4752 C   0  0  2  0  0  0  0  0  0  0  0  0
  -44.7312   -6.8627  -29.6062 N   0  0  0  0  0  0  0  0  0  0  0  0
  -45.6926   -7.8457  -27.7998 O   0  0  0  0  0  0  0  0  0  0  0  0
  -44.9951   -5.5267  -27.5699 C   0  0  1  0  0  0  0  0  0  0  0  0
  -44.6444   -4.4017  -28.3663 O   0  0  0  0  0  0  0  0  0  0  0  0
  -49.1890   -5.5364  -28.7883 C   0  0  2  0  0  0  0  0  0  0  0  0
  -49.2014   -4.2416  -29.5890 C   0  0  0  0  0  0  0  0  0  0  0  0
  -50.2604   -5.5419  -27.6965 C   0  0  0  0  0  0  0  0  0  0  0  0
  -49.7972   -6.5740  -26.6620 C   0  0  0  0  0  0  0  0  0  0  0  0
  -48.4253   -7.0873  -27.1400 C   0  0  1  0  0  0  0  0  0  0  0  0
  -48.6005   -8.2727  -27.9295 O   0  0  0  0  0  0  0  0  0  0  0  0
  -48.7774   -9.4303  -27.1336 C   0  0  0  0  0  0  0  0  0  0  0  0
  -47.6362   -9.6660  -26.4475 F   0  0  0  0  0  0  0  0  0  0  0  0
  -48.9547  -10.4745  -27.9777 F   0  0  0  0  0  0  0  0  0  0  0  0
  1  2  1  0
  2  3  2  0
  2  4  1  0
  4  5  1  0
  6  5  1  6
  6  7  1  0
  8  7  1  1
  8  9  1  0
  9 10  1  0
 10 11  1  6
 10 12  1  0
 10 13  1  0
 13 14  1  6
  8 15  1  0
 15 16  1  1
 15 17  1  0
 17 18  1  0
 18 19  1  0
 19 20  1  6
 20 21  1  0
 21 22  1  0
 21 23  1  0
 13  6  1  0
 19  8  1  0
M  END
>  <original SMILES>  (57) 
CC(=O)NC[C@H]1C[C@]2(N[C@](N)(O)[C@H]1O)[C@H](C)CC[C@H]2OC(F)F

>  <ref_pdb>  (57) 
m0238a

>  <distance_score>  (57) 
0.998788

>  <fragmenstein_runtime>  (57) 
2.372811

>  <name>  (57) 
XMXXCWKCVDQPBP-GYHJWEJSSA-N

>  <scratch_subdir>  (57) 
/opt/xchem-fragalysis-2/maxwin/BulkDock/SCRATCH/352916/C1956-P18

>  <ref_mols>  (57) 
m0238a,m0469a

>  <HIPPO Compound ID>  (57) 
1956

>  <energy_score>  (57) 
-80.609025

>  <alias>  (57) 
None

>  <original ID>  (57) 
XMXXCWKCVDQPBP-GYHJWEJSSA-N

>  <SLURM_JOB_ID>  (57) 
352916

>  <HIPPO Pose ID>  (57) 
1980

>  <fragmenstein_mode>  (57) 
expansion

>  <fragmenstein_outcome>  (57) 
acceptable

>  <score_inspiration>  (57) 
0.396417

>  <inchikey>  (57) 
XMXXCWKCVDQPBP-GYHJWEJSSA-N

>  <csv_name>  (57) 
TRIM21_iter1_fstein_split1000_batch000.csv

>  <fragmenstein_error>  (57) 
None

>  <subsites>  (57) 
None

>  <tags>  (57) 
Fragmenstein placed

$$$$
2003
     RDKit          3D

 16 17  0  0  0  0  0  0  0  0999 V2000
  -46.0986   -7.2370  -26.0636 O   0  0  0  0  0  0  0  0  0  0  0  0
  -46.1727   -6.4258  -26.9891 C   0  0  0  0  0  0  0  0  0  0  0  0
  -47.0852   -5.1939  -26.8912 C   0  0  0  0  0  0  0  0  0  0  0  0
  -46.7302   -4.2288  -25.8164 N   0  0  0  0  0  0  0  0  0  0  0  0
  -46.9213   -4.7806  -24.4679 C   0  0  0  0  0  0  0  0  0  0  0  0
  -46.8447   -3.6889  -23.4113 C   0  0  0  0  0  0  0  0  0  0  0  0
  -45.2648   -2.9065  -23.4324 S   0  0  0  0  0  0  0  0  0  0  0  0
  -44.2454   -3.8866  -23.0847 O   0  0  0  0  0  0  0  0  0  0  0  0
  -45.3481   -1.6881  -22.6544 O   0  0  0  0  0  0  0  0  0  0  0  0
  -45.1400   -2.4742  -25.1417 C   0  0  0  0  0  0  0  0  0  0  0  0
  -45.3718   -3.7084  -25.9989 C   0  0  0  0  0  0  0  0  0  0  0  0
  -45.4319   -6.6130  -28.2153 C   0  0  0  0  0  0  0  0  0  0  0  0
  -44.6119   -7.6517  -28.6132 C   0  0  0  0  0  0  0  0  0  0  0  0
  -44.2396   -7.3745  -29.9458 C   0  0  0  0  0  0  0  0  0  0  0  0
  -44.7968   -6.1615  -30.2607 C   0  0  0  0  0  0  0  0  0  0  0  0
  -45.5237   -5.6909  -29.2184 O   0  0  0  0  0  0  0  0  0  0  0  0
  1  2  2  0
  2  3  1  0
  3  4  1  0
  4  5  1  0
  5  6  1  0
  6  7  1  0
  7  8  2  0
  7  9  2  0
  7 10  1  0
 10 11  1  0
  2 12  1  0
 12 13  2  0
 13 14  1  0
 14 15  2  0
 15 16  1  0
 11  4  1  0
 16 12  1  0
M  END
>  <original SMILES>  (58) 
O=C(CN1CCS(=O)(=O)CC1)c1ccco1

>  <ref_pdb>  (58) 
m0243a

>  <distance_score>  (58) 
0.988937

>  <fragmenstein_runtime>  (58) 
2.233108

>  <name>  (58) 
QMWJEPNJFATFEY-UHFFFAOYSA-N

>  <scratch_subdir>  (58) 
/opt/xchem-fragalysis-2/maxwin/BulkDock/SCRATCH/352916/C1983-P19

>  <ref_mols>  (58) 
m0145a,m0243a

>  <HIPPO Compound ID>  (58) 
1983

>  <energy_score>  (58) 
-50.016122

>  <alias>  (58) 
None

>  <original ID>  (58) 
QMWJEPNJFATFEY-UHFFFAOYSA-N

>  <SLURM_JOB_ID>  (58) 
352916

>  <HIPPO Pose ID>  (58) 
2003

>  <fragmenstein_mode>  (58) 
expansion

>  <fragmenstein_outcome>  (58) 
acceptable

>  <score_inspiration>  (58) 
0.766233

>  <inchikey>  (58) 
QMWJEPNJFATFEY-UHFFFAOYSA-N

>  <csv_name>  (58) 
TRIM21_iter1_fstein_split1000_batch000.csv

>  <fragmenstein_error>  (58) 
None

>  <subsites>  (58) 
None

>  <tags>  (58) 
Fragmenstein placed

$$$$
2088
     RDKit          3D

 16 16  0  0  0  0  0  0  0  0999 V2000
  -43.6834   -7.8756  -29.5039 C   0  0  0  0  0  0  0  0  0  0  0  0
  -44.9415   -8.4284  -28.8954 C   0  0  0  0  0  0  0  0  0  0  0  0
  -45.3654   -9.5234  -29.2768 O   0  0  0  0  0  0  0  0  0  0  0  0
  -45.9356   -7.5577  -27.6526 S   0  0  0  0  0  0  0  0  0  0  0  0
  -47.0248   -8.4352  -27.2684 O   0  0  0  0  0  0  0  0  0  0  0  0
  -44.9694   -7.0524  -26.6961 O   0  0  0  0  0  0  0  0  0  0  0  0
  -46.5575   -6.2196  -28.6554 C   0  0  0  0  0  0  0  0  0  0  0  0
  -47.7523   -5.5416  -27.9965 C   0  0  2  0  0  0  0  0  0  0  0  0
  -48.5003   -4.6836  -29.0222 C   0  0  0  0  0  0  0  0  0  0  0  0
  -47.4414   -4.7119  -26.7666 C   0  0  0  0  0  0  0  0  0  0  0  0
  -46.3268   -3.8647  -26.6750 C   0  0  0  0  0  0  0  0  0  0  0  0
  -46.1794   -2.9998  -25.5886 C   0  0  0  0  0  0  0  0  0  0  0  0
  -47.1524   -2.9729  -24.6034 C   0  0  0  0  0  0  0  0  0  0  0  0
  -47.0866   -2.0707  -23.6201 F   0  0  0  0  0  0  0  0  0  0  0  0
  -48.2297   -3.8400  -24.6437 C   0  0  0  0  0  0  0  0  0  0  0  0
  -48.3679   -4.7210  -25.7122 C   0  0  0  0  0  0  0  0  0  0  0  0
  1  2  1  0
  2  3  2  0
  2  4  1  0
  4  5  2  0
  4  6  2  0
  4  7  1  0
  7  8  1  0
  8  9  1  6
  8 10  1  0
 10 11  2  0
 11 12  1  0
 12 13  2  0
 13 14  1  0
 13 15  1  0
 15 16  2  0
 16 10  1  0
M  END
>  <original SMILES>  (59) 
CC(=O)S(=O)(=O)C[C@H](C)c1ccc(F)cc1

>  <ref_pdb>  (59) 
m0248a

>  <distance_score>  (59) 
0.927578

>  <fragmenstein_runtime>  (59) 
4.011016

>  <name>  (59) 
YAPMZKHBWFBMQR-QMMMGPOBSA-N

>  <scratch_subdir>  (59) 
/opt/xchem-fragalysis-2/maxwin/BulkDock/SCRATCH/352916/C2042-P20

>  <ref_mols>  (59) 
m0248a,m0597a

>  <HIPPO Compound ID>  (59) 
2042

>  <energy_score>  (59) 
-24.90227

>  <alias>  (59) 
None

>  <original ID>  (59) 
YAPMZKHBWFBMQR-QMMMGPOBSA-N

>  <SLURM_JOB_ID>  (59) 
352916

>  <HIPPO Pose ID>  (59) 
2088

>  <fragmenstein_mode>  (59) 
expansion

>  <fragmenstein_outcome>  (59) 
acceptable

>  <score_inspiration>  (59) 
0.474915

>  <inchikey>  (59) 
YAPMZKHBWFBMQR-QMMMGPOBSA-N

>  <csv_name>  (59) 
TRIM21_iter1_fstein_split1000_batch000.csv

>  <fragmenstein_error>  (59) 
None

>  <subsites>  (59) 
None

>  <tags>  (59) 
Fragmenstein placed

$$$$
2089
     RDKit          3D

 16 16  0  0  0  0  0  0  0  0999 V2000
  -43.7359   -7.5852  -29.3919 C   0  0  0  0  0  0  0  0  0  0  0  0
  -44.9982   -8.3713  -29.1337 C   0  0  0  0  0  0  0  0  0  0  0  0
  -45.0794   -9.5229  -29.5687 O   0  0  0  0  0  0  0  0  0  0  0  0
  -46.4490   -7.7846  -28.2279 S   0  0  0  0  0  0  0  0  0  0  0  0
  -47.5776   -8.6205  -28.5954 O   0  0  0  0  0  0  0  0  0  0  0  0
  -46.0137   -7.6469  -26.8558 O   0  0  0  0  0  0  0  0  0  0  0  0
  -46.7260   -6.1611  -28.8905 C   0  0  0  0  0  0  0  0  0  0  0  0
  -47.8863   -5.5123  -28.1267 C   0  0  2  0  0  0  0  0  0  0  0  0
  -48.6793   -4.5702  -29.0344 C   0  0  0  0  0  0  0  0  0  0  0  0
  -47.5070   -4.8020  -26.8360 C   0  0  0  0  0  0  0  0  0  0  0  0
  -46.3811   -3.9743  -26.7189 C   0  0  0  0  0  0  0  0  0  0  0  0
  -46.1892   -3.1902  -25.5792 C   0  0  0  0  0  0  0  0  0  0  0  0
  -47.1242   -3.2300  -24.5590 C   0  0  0  0  0  0  0  0  0  0  0  0
  -47.0266   -2.3791  -23.5331 F   0  0  0  0  0  0  0  0  0  0  0  0
  -48.1955   -4.1034  -24.6120 C   0  0  0  0  0  0  0  0  0  0  0  0
  -48.3818   -4.8980  -25.7407 C   0  0  0  0  0  0  0  0  0  0  0  0
  1  2  1  0
  2  3  2  0
  2  4  1  0
  4  5  2  0
  4  6  2  0
  4  7  1  0
  7  8  1  0
  8  9  1  6
  8 10  1  0
 10 11  2  0
 11 12  1  0
 12 13  2  0
 13 14  1  0
 13 15  1  0
 15 16  2  0
 16 10  1  0
M  END
>  <original SMILES>  (60) 
CC(=O)S(=O)(=O)C[C@H](C)c1ccc(F)cc1

>  <ref_pdb>  (60) 
m0597a

>  <distance_score>  (60) 
0.96856

>  <fragmenstein_runtime>  (60) 
4.59575

>  <name>  (60) 
YAPMZKHBWFBMQR-QMMMGPOBSA-N

>  <scratch_subdir>  (60) 
/opt/xchem-fragalysis-2/maxwin/BulkDock/SCRATCH/352916/C2042-P56

>  <ref_mols>  (60) 
m0248a,m0597a

>  <HIPPO Compound ID>  (60) 
2042

>  <energy_score>  (60) 
-22.027616

>  <alias>  (60) 
None

>  <original ID>  (60) 
YAPMZKHBWFBMQR-QMMMGPOBSA-N

>  <SLURM_JOB_ID>  (60) 
352916

>  <HIPPO Pose ID>  (60) 
2089

>  <fragmenstein_mode>  (60) 
expansion

>  <fragmenstein_outcome>  (60) 
acceptable

>  <score_inspiration>  (60) 
0.452043

>  <inchikey>  (60) 
YAPMZKHBWFBMQR-QMMMGPOBSA-N

>  <csv_name>  (60) 
TRIM21_iter1_fstein_split1000_batch000.csv

>  <fragmenstein_error>  (60) 
None

>  <subsites>  (60) 
None

>  <tags>  (60) 
Fragmenstein placed

$$$$
2120
     RDKit          3D

 16 17  0  0  0  0  0  0  0  0999 V2000
  -46.4156   -2.9141  -23.7064 N   0  0  0  0  0  0  0  0  0  0  0  0
  -44.7428   -2.9684  -23.8413 S   0  0  0  0  0  0  0  0  0  0  0  0
  -44.2407   -3.8461  -22.7983 O   0  0  0  0  0  0  0  0  0  0  0  0
  -44.3113   -1.5846  -23.8353 O   0  0  0  0  0  0  0  0  0  0  0  0
  -44.4736   -3.6894  -25.4758 C   0  0  0  0  0  0  0  0  0  0  0  0
  -45.2884   -4.9574  -25.8464 C   0  0  2  0  0  0  0  0  0  0  0  0
  -46.5208   -4.5705  -26.1623 O   0  0  0  0  0  0  0  0  0  0  0  0
  -45.3131   -5.8912  -24.6058 C   0  0  0  0  0  0  0  0  0  0  0  0
  -45.4517   -7.3084  -24.7761 O   0  0  0  0  0  0  0  0  0  0  0  0
  -45.8888   -7.6806  -26.0666 C   0  0  0  0  0  0  0  0  0  0  0  0
  -44.9352   -7.1342  -27.0710 C   0  0  0  0  0  0  0  0  0  0  0  0
  -44.3679   -7.9512  -28.0502 C   0  0  0  0  0  0  0  0  0  0  0  0
  -43.5400   -7.3930  -29.0090 C   0  0  0  0  0  0  0  0  0  0  0  0
  -43.2757   -6.0247  -28.9812 C   0  0  0  0  0  0  0  0  0  0  0  0
  -43.8361   -5.2114  -27.9899 C   0  0  0  0  0  0  0  0  0  0  0  0
  -44.6714   -5.7509  -27.0106 C   0  0  0  0  0  0  0  0  0  0  0  0
  1  2  1  0
  2  3  2  0
  2  4  2  0
  2  5  1  0
  5  6  1  0
  6  7  1  6
  6  8  1  0
  8  9  1  0
  9 10  1  0
 10 11  1  0
 11 12  2  0
 12 13  1  0
 13 14  2  0
 14 15  1  0
 15 16  2  0
 16  6  1  0
 16 11  1  0
M  CHG  1   7  -1
M  END
>  <original SMILES>  (61) 
NS(=O)(=O)C[C@]1([O-])COCc2ccccc21

>  <ref_pdb>  (61) 
m0269a

>  <distance_score>  (61) 
0.997962

>  <fragmenstein_runtime>  (61) 
32.538094

>  <name>  (61) 
IMHCXEDCIYGLIG-SNVBAGLBSA-N

>  <scratch_subdir>  (61) 
/opt/xchem-fragalysis-2/maxwin/BulkDock/SCRATCH/352916/C2077-P22

>  <ref_mols>  (61) 
m0269a,m0306a

>  <HIPPO Compound ID>  (61) 
2077

>  <energy_score>  (61) 
-60.143375

>  <alias>  (61) 
None

>  <original ID>  (61) 
IMHCXEDCIYGLIG-SNVBAGLBSA-N

>  <SLURM_JOB_ID>  (61) 
352916

>  <HIPPO Pose ID>  (61) 
2120

>  <fragmenstein_mode>  (61) 
expansion

>  <fragmenstein_outcome>  (61) 
acceptable

>  <score_inspiration>  (61) 
0.644028

>  <inchikey>  (61) 
IMHCXEDCIYGLIG-SNVBAGLBSA-N

>  <csv_name>  (61) 
TRIM21_iter1_fstein_split1000_batch000.csv

>  <fragmenstein_error>  (61) 
None

>  <subsites>  (61) 
None

>  <tags>  (61) 
Fragmenstein placed

$$$$
2121
     RDKit          3D

 16 17  0  0  0  0  0  0  0  0999 V2000
  -46.6096   -3.2519  -23.1187 N   0  0  0  0  0  0  0  0  0  0  0  0
  -45.0933   -3.0708  -23.7976 S   0  0  0  0  0  0  0  0  0  0  0  0
  -44.1645   -3.8466  -22.9961 O   0  0  0  0  0  0  0  0  0  0  0  0
  -44.8780   -1.6423  -23.8948 O   0  0  0  0  0  0  0  0  0  0  0  0
  -45.3624   -3.7503  -25.4509 C   0  0  0  0  0  0  0  0  0  0  0  0
  -45.5847   -5.2828  -25.5959 C   0  0  2  0  0  0  0  0  0  0  0  0
  -46.8992   -5.4036  -25.7181 O   0  0  0  0  0  0  0  0  0  0  0  0
  -45.0346   -6.0880  -24.3808 C   0  0  0  0  0  0  0  0  0  0  0  0
  -45.2247   -7.5042  -24.4734 O   0  0  0  0  0  0  0  0  0  0  0  0
  -44.5021   -8.0556  -25.5589 C   0  0  0  0  0  0  0  0  0  0  0  0
  -44.4363   -7.2224  -26.8051 C   0  0  0  0  0  0  0  0  0  0  0  0
  -43.8401   -7.8073  -27.9339 C   0  0  0  0  0  0  0  0  0  0  0  0
  -43.7406   -7.1109  -29.1250 C   0  0  0  0  0  0  0  0  0  0  0  0
  -44.2177   -5.8109  -29.1878 C   0  0  0  0  0  0  0  0  0  0  0  0
  -44.8210   -5.2191  -28.0714 C   0  0  0  0  0  0  0  0  0  0  0  0
  -44.9341   -5.9028  -26.8514 C   0  0  0  0  0  0  0  0  0  0  0  0
  1  2  1  0
  2  3  2  0
  2  4  2  0
  2  5  1  0
  5  6  1  0
  6  7  1  6
  6  8  1  0
  8  9  1  0
  9 10  1  0
 10 11  1  0
 11 12  2  0
 12 13  1  0
 13 14  2  0
 14 15  1  0
 15 16  2  0
 16  6  1  0
 16 11  1  0
M  CHG  1   7  -1
M  END
>  <original SMILES>  (62) 
NS(=O)(=O)C[C@]1([O-])COCc2ccccc21

>  <ref_pdb>  (62) 
m0306a

>  <distance_score>  (62) 
0.946058

>  <fragmenstein_runtime>  (62) 
34.710466

>  <name>  (62) 
IMHCXEDCIYGLIG-SNVBAGLBSA-N

>  <scratch_subdir>  (62) 
/opt/xchem-fragalysis-2/maxwin/BulkDock/SCRATCH/352916/C2077-P24

>  <ref_mols>  (62) 
m0269a,m0306a

>  <HIPPO Compound ID>  (62) 
2077

>  <energy_score>  (62) 
-53.110108

>  <alias>  (62) 
None

>  <original ID>  (62) 
IMHCXEDCIYGLIG-SNVBAGLBSA-N

>  <SLURM_JOB_ID>  (62) 
352916

>  <HIPPO Pose ID>  (62) 
2121

>  <fragmenstein_mode>  (62) 
expansion

>  <fragmenstein_outcome>  (62) 
acceptable

>  <score_inspiration>  (62) 
0.622311

>  <inchikey>  (62) 
IMHCXEDCIYGLIG-SNVBAGLBSA-N

>  <csv_name>  (62) 
TRIM21_iter1_fstein_split1000_batch000.csv

>  <fragmenstein_error>  (62) 
None

>  <subsites>  (62) 
None

>  <tags>  (62) 
Fragmenstein placed

$$$$
2246
     RDKit          3D

 21 22  0  0  0  0  0  0  0  0999 V2000
  -46.8613   -2.3337  -23.3811 C   0  0  0  0  0  0  0  0  0  0  0  0
  -45.3707   -3.1071  -23.9635 S   0  0  0  0  0  0  0  0  0  0  0  0
  -44.5592   -2.1165  -24.6266 O   0  0  0  0  0  0  0  0  0  0  0  0
  -44.8046   -3.8990  -22.8905 O   0  0  0  0  0  0  0  0  0  0  0  0
  -45.9314   -4.1282  -25.1732 N   0  0  0  0  0  0  0  0  0  0  0  0
  -46.8282   -5.2267  -24.8067 C   0  0  0  0  0  0  0  0  0  0  0  0
  -47.0309   -6.2107  -25.9415 C   0  0  0  0  0  0  0  0  0  0  0  0
  -47.6426   -5.6095  -27.2063 C   0  0  0  0  0  0  0  0  0  0  0  0
  -47.4181   -6.4403  -28.3606 O   0  0  0  0  0  0  0  0  0  0  0  0
  -46.0822   -6.6423  -28.6303 C   0  0  0  0  0  0  0  0  0  0  0  0
  -45.2278   -5.5300  -28.7380 C   0  0  0  0  0  0  0  0  0  0  0  0
  -43.8535   -5.6954  -28.8536 C   0  0  0  0  0  0  0  0  0  0  0  0
  -43.3273   -6.9726  -28.8946 C   0  0  0  0  0  0  0  0  0  0  0  0
  -44.1834   -8.0748  -28.8943 C   0  0  0  0  0  0  0  0  0  0  0  0
  -45.5824   -7.9541  -28.7643 C   0  0  0  0  0  0  0  0  0  0  0  0
  -46.3234   -9.1499  -28.7052 N   0  0  0  0  0  0  0  0  0  0  0  0
  -46.3112   -9.8946  -29.9872 C   0  0  0  0  0  0  0  0  0  0  0  0
  -46.8175  -11.3406  -29.7610 C   0  0  0  0  0  0  0  0  0  0  0  0
  -48.1538  -11.4154  -29.1398 N   0  0  0  0  0  0  0  0  0  0  0  0
  -48.1522  -10.6138  -27.9016 C   0  0  0  0  0  0  0  0  0  0  0  0
  -47.6699   -9.1567  -28.1057 C   0  0  0  0  0  0  0  0  0  0  0  0
  1  2  1  0
  2  3  2  0
  2  4  2  0
  2  5  1  0
  5  6  1  0
  6  7  1  0
  7  8  1  0
  8  9  1  0
  9 10  1  0
 10 11  2  0
 11 12  1  0
 12 13  2  0
 13 14  1  0
 14 15  2  0
 15 16  1  0
 16 17  1  0
 17 18  1  0
 18 19  1  0
 19 20  1  0
 20 21  1  0
 15 10  1  0
 21 16  1  0
M  END
>  <original SMILES>  (63) 
CS(=O)(=O)NCCCOc1ccccc1N1CCNCC1

>  <ref_pdb>  (63) 
m0310a

>  <distance_score>  (63) 
0.75721

>  <fragmenstein_runtime>  (63) 
9.537643

>  <name>  (63) 
GAOYSEUYTVFDHI-UHFFFAOYSA-N

>  <scratch_subdir>  (63) 
/opt/xchem-fragalysis-2/maxwin/BulkDock/SCRATCH/352916/C2195-P25

>  <ref_mols>  (63) 
m0310a,m0731a

>  <HIPPO Compound ID>  (63) 
2195

>  <energy_score>  (63) 
-36.913454

>  <alias>  (63) 
None

>  <original ID>  (63) 
GAOYSEUYTVFDHI-UHFFFAOYSA-N

>  <SLURM_JOB_ID>  (63) 
352916

>  <HIPPO Pose ID>  (63) 
2246

>  <fragmenstein_mode>  (63) 
expansion

>  <fragmenstein_outcome>  (63) 
acceptable

>  <score_inspiration>  (63) 
0.621998

>  <inchikey>  (63) 
GAOYSEUYTVFDHI-UHFFFAOYSA-N

>  <csv_name>  (63) 
TRIM21_iter1_fstein_split1000_batch000.csv

>  <fragmenstein_error>  (63) 
None

>  <subsites>  (63) 
None

>  <tags>  (63) 
Fragmenstein placed

$$$$
2247
     RDKit          3D

 21 22  0  0  0  0  0  0  0  0999 V2000
  -46.8335   -2.7373  -23.0389 C   0  0  0  0  0  0  0  0  0  0  0  0
  -45.2987   -3.3235  -23.7184 S   0  0  0  0  0  0  0  0  0  0  0  0
  -44.6166   -2.2031  -24.3188 O   0  0  0  0  0  0  0  0  0  0  0  0
  -44.6141   -4.1633  -22.7554 O   0  0  0  0  0  0  0  0  0  0  0  0
  -45.7910   -4.2970  -24.9835 N   0  0  0  0  0  0  0  0  0  0  0  0
  -46.4897   -5.5469  -24.6670 C   0  0  0  0  0  0  0  0  0  0  0  0
  -46.6503   -6.3940  -25.9109 C   0  0  0  0  0  0  0  0  0  0  0  0
  -47.4703   -5.6804  -26.9985 C   0  0  0  0  0  0  0  0  0  0  0  0
  -47.4013   -6.3065  -28.2886 O   0  0  0  0  0  0  0  0  0  0  0  0
  -46.1061   -6.5796  -28.6621 C   0  0  0  0  0  0  0  0  0  0  0  0
  -45.1829   -5.5172  -28.7202 C   0  0  0  0  0  0  0  0  0  0  0  0
  -43.8261   -5.7687  -28.8646 C   0  0  0  0  0  0  0  0  0  0  0  0
  -43.3993   -7.0788  -28.9798 C   0  0  0  0  0  0  0  0  0  0  0  0
  -44.3358   -8.1178  -29.0287 C   0  0  0  0  0  0  0  0  0  0  0  0
  -45.7221   -7.9146  -28.8911 C   0  0  0  0  0  0  0  0  0  0  0  0
  -46.5742   -9.0267  -28.8834 N   0  0  0  0  0  0  0  0  0  0  0  0
  -46.4443   -9.9652  -30.0142 C   0  0  0  0  0  0  0  0  0  0  0  0
  -46.8277  -11.3895  -29.5323 C   0  0  0  0  0  0  0  0  0  0  0  0
  -47.7842  -11.4505  -28.3988 N   0  0  0  0  0  0  0  0  0  0  0  0
  -48.7046  -10.3000  -28.5140 C   0  0  0  0  0  0  0  0  0  0  0  0
  -47.9800   -8.9249  -28.4282 C   0  0  0  0  0  0  0  0  0  0  0  0
  1  2  1  0
  2  3  2  0
  2  4  2  0
  2  5  1  0
  5  6  1  0
  6  7  1  0
  7  8  1  0
  8  9  1  0
  9 10  1  0
 10 11  2  0
 11 12  1  0
 12 13  2  0
 13 14  1  0
 14 15  2  0
 15 16  1  0
 16 17  1  0
 17 18  1  0
 18 19  1  0
 19 20  1  0
 20 21  1  0
 15 10  1  0
 21 16  1  0
M  END
>  <original SMILES>  (64) 
CS(=O)(=O)NCCCOc1ccccc1N1CCNCC1

>  <ref_pdb>  (64) 
m0731a

>  <distance_score>  (64) 
0.740117

>  <fragmenstein_runtime>  (64) 
9.441116

>  <name>  (64) 
GAOYSEUYTVFDHI-UHFFFAOYSA-N

>  <scratch_subdir>  (64) 
/opt/xchem-fragalysis-2/maxwin/BulkDock/SCRATCH/352916/C2195-P75

>  <ref_mols>  (64) 
m0310a,m0731a

>  <HIPPO Compound ID>  (64) 
2195

>  <energy_score>  (64) 
-29.706426

>  <alias>  (64) 
None

>  <original ID>  (64) 
GAOYSEUYTVFDHI-UHFFFAOYSA-N

>  <SLURM_JOB_ID>  (64) 
352916

>  <HIPPO Pose ID>  (64) 
2247

>  <fragmenstein_mode>  (64) 
expansion

>  <fragmenstein_outcome>  (64) 
acceptable

>  <score_inspiration>  (64) 
0.633003

>  <inchikey>  (64) 
GAOYSEUYTVFDHI-UHFFFAOYSA-N

>  <csv_name>  (64) 
TRIM21_iter1_fstein_split1000_batch000.csv

>  <fragmenstein_error>  (64) 
None

>  <subsites>  (64) 
None

>  <tags>  (64) 
Fragmenstein placed

$$$$
2250
     RDKit          3D

 20 22  0  0  0  0  0  0  0  0999 V2000
  -48.2589   -6.5858  -29.1284 O   0  0  0  0  0  0  0  0  0  0  0  0
  -47.4302   -6.5365  -28.2246 C   0  0  0  0  0  0  0  0  0  0  0  0
  -47.7866   -6.2749  -26.7773 C   0  0  0  0  0  0  0  0  0  0  0  0
  -48.0277   -4.8313  -26.5526 C   0  0  0  0  0  0  0  0  0  0  0  0
  -49.1153   -4.0372  -26.8627 C   0  0  0  0  0  0  0  0  0  0  0  0
  -49.0315   -2.7240  -26.4326 N   0  0  0  0  0  0  0  0  0  0  0  0
  -47.8921   -2.4911  -25.8020 N   0  0  0  0  0  0  0  0  0  0  0  0
  -46.8883   -3.8290  -25.7518 S   0  0  0  0  0  0  0  0  0  0  0  0
  -45.9974   -6.7064  -28.5126 C   0  0  0  0  0  0  0  0  0  0  0  0
  -45.2580   -5.5212  -28.6462 C   0  0  0  0  0  0  0  0  0  0  0  0
  -43.8793   -5.5738  -28.7966 C   0  0  0  0  0  0  0  0  0  0  0  0
  -43.2443   -6.8019  -28.8551 C   0  0  0  0  0  0  0  0  0  0  0  0
  -43.9948   -7.9762  -28.8004 C   0  0  0  0  0  0  0  0  0  0  0  0
  -45.3850   -7.9669  -28.5898 C   0  0  0  0  0  0  0  0  0  0  0  0
  -45.9926   -9.2136  -28.4420 N   0  0  0  0  0  0  0  0  0  0  0  0
  -46.4909   -9.7976  -29.7031 C   0  0  0  0  0  0  0  0  0  0  0  0
  -46.8130  -11.3024  -29.4975 C   0  0  0  0  0  0  0  0  0  0  0  0
  -47.6865  -11.5990  -28.3380 N   0  0  0  0  0  0  0  0  0  0  0  0
  -47.0921  -10.9755  -27.1328 C   0  0  0  0  0  0  0  0  0  0  0  0
  -46.8753   -9.4585  -27.2973 C   0  0  0  0  0  0  0  0  0  0  0  0
  1  2  2  0
  2  3  1  0
  3  4  1  0
  4  5  2  0
  5  6  1  0
  6  7  2  0
  7  8  1  0
  2  9  1  0
  9 10  2  0
 10 11  1  0
 11 12  2  0
 12 13  1  0
 13 14  2  0
 14 15  1  0
 15 16  1  0
 16 17  1  0
 17 18  1  0
 18 19  1  0
 19 20  1  0
  8  4  1  0
 14  9  1  0
 20 15  1  0
M  END
>  <original SMILES>  (65) 
O=C(Cc1cnns1)c1ccccc1N1CCNCC1

>  <ref_pdb>  (65) 
m0310a

>  <distance_score>  (65) 
0.824348

>  <fragmenstein_runtime>  (65) 
5.345389

>  <name>  (65) 
OPUJMSXZFRIFCK-UHFFFAOYSA-N

>  <scratch_subdir>  (65) 
/opt/xchem-fragalysis-2/maxwin/BulkDock/SCRATCH/352916/C2198-P25

>  <ref_mols>  (65) 
m0310a,m0744a

>  <HIPPO Compound ID>  (65) 
2198

>  <energy_score>  (65) 
-63.016839

>  <alias>  (65) 
None

>  <original ID>  (65) 
OPUJMSXZFRIFCK-UHFFFAOYSA-N

>  <SLURM_JOB_ID>  (65) 
352916

>  <HIPPO Pose ID>  (65) 
2250

>  <fragmenstein_mode>  (65) 
expansion

>  <fragmenstein_outcome>  (65) 
acceptable

>  <score_inspiration>  (65) 
0.481301

>  <inchikey>  (65) 
OPUJMSXZFRIFCK-UHFFFAOYSA-N

>  <csv_name>  (65) 
TRIM21_iter1_fstein_split1000_batch000.csv

>  <fragmenstein_error>  (65) 
None

>  <subsites>  (65) 
None

>  <tags>  (65) 
Fragmenstein placed

$$$$
2251
     RDKit          3D

 20 22  0  0  0  0  0  0  0  0999 V2000
  -48.2262   -6.5897  -29.1355 O   0  0  0  0  0  0  0  0  0  0  0  0
  -47.4076   -6.5279  -28.2233 C   0  0  0  0  0  0  0  0  0  0  0  0
  -47.7822   -6.2594  -26.7821 C   0  0  0  0  0  0  0  0  0  0  0  0
  -48.0351   -4.8156  -26.5716 C   0  0  0  0  0  0  0  0  0  0  0  0
  -49.1192   -4.0287  -26.9112 C   0  0  0  0  0  0  0  0  0  0  0  0
  -49.0495   -2.7114  -26.4913 N   0  0  0  0  0  0  0  0  0  0  0  0
  -47.9243   -2.4682  -25.8394 N   0  0  0  0  0  0  0  0  0  0  0  0
  -46.9172   -3.8017  -25.7555 S   0  0  0  0  0  0  0  0  0  0  0  0
  -45.9703   -6.6915  -28.4940 C   0  0  0  0  0  0  0  0  0  0  0  0
  -45.2285   -5.5058  -28.6056 C   0  0  0  0  0  0  0  0  0  0  0  0
  -43.8482   -5.5580  -28.7456 C   0  0  0  0  0  0  0  0  0  0  0  0
  -43.2134   -6.7854  -28.8193 C   0  0  0  0  0  0  0  0  0  0  0  0
  -43.9658   -7.9588  -28.7799 C   0  0  0  0  0  0  0  0  0  0  0  0
  -45.3571   -7.9506  -28.5787 C   0  0  0  0  0  0  0  0  0  0  0  0
  -45.9668   -9.1982  -28.4490 N   0  0  0  0  0  0  0  0  0  0  0  0
  -46.4997   -9.7494  -29.7103 C   0  0  0  0  0  0  0  0  0  0  0  0
  -46.8206  -11.2574  -29.5297 C   0  0  0  0  0  0  0  0  0  0  0  0
  -47.6683  -11.5779  -28.3571 N   0  0  0  0  0  0  0  0  0  0  0  0
  -47.0482  -10.9792  -27.1518 C   0  0  0  0  0  0  0  0  0  0  0  0
  -46.8266   -9.4601  -27.2904 C   0  0  0  0  0  0  0  0  0  0  0  0
  1  2  2  0
  2  3  1  0
  3  4  1  0
  4  5  2  0
  5  6  1  0
  6  7  2  0
  7  8  1  0
  2  9  1  0
  9 10  2  0
 10 11  1  0
 11 12  2  0
 12 13  1  0
 13 14  2  0
 14 15  1  0
 15 16  1  0
 16 17  1  0
 17 18  1  0
 18 19  1  0
 19 20  1  0
  8  4  1  0
 14  9  1  0
 20 15  1  0
M  END
>  <original SMILES>  (66) 
O=C(Cc1cnns1)c1ccccc1N1CCNCC1

>  <ref_pdb>  (66) 
m0744a

>  <distance_score>  (66) 
0.830464

>  <fragmenstein_runtime>  (66) 
5.703284

>  <name>  (66) 
OPUJMSXZFRIFCK-UHFFFAOYSA-N

>  <scratch_subdir>  (66) 
/opt/xchem-fragalysis-2/maxwin/BulkDock/SCRATCH/352916/C2198-P78

>  <ref_mols>  (66) 
m0310a,m0744a

>  <HIPPO Compound ID>  (66) 
2198

>  <energy_score>  (66) 
-63.185212

>  <alias>  (66) 
None

>  <original ID>  (66) 
OPUJMSXZFRIFCK-UHFFFAOYSA-N

>  <SLURM_JOB_ID>  (66) 
352916

>  <HIPPO Pose ID>  (66) 
2251

>  <fragmenstein_mode>  (66) 
expansion

>  <fragmenstein_outcome>  (66) 
acceptable

>  <score_inspiration>  (66) 
0.483709

>  <inchikey>  (66) 
OPUJMSXZFRIFCK-UHFFFAOYSA-N

>  <csv_name>  (66) 
TRIM21_iter1_fstein_split1000_batch000.csv

>  <fragmenstein_error>  (66) 
None

>  <subsites>  (66) 
None

>  <tags>  (66) 
Fragmenstein placed

$$$$
