TRIM21-x0659_B_201_1_TRIM21-x0031+B+401+1__LIG
     RDKit          3D

 18 20  0  0  0  0  0  0  0  0999 V2000
  -43.7930   -4.7130  -22.9720 O   0  0  0  0  0  0  0  0  0  0  0  0
  -44.4150   -4.5210  -24.0140 C   0  0  0  0  0  0  0  0  0  0  0  0
  -45.3440   -3.5500  -24.0710 N   0  0  0  0  0  0  0  0  0  0  0  0
  -45.7820   -3.0480  -22.7600 C   0  0  0  0  0  0  0  0  0  0  0  0
  -46.5880   -1.7580  -22.7810 C   0  0  0  0  0  0  0  0  0  0  0  0
  -47.9870   -1.8840  -23.3460 C   0  0  0  0  0  0  0  0  0  0  0  0
  -48.2460   -3.0870  -24.2150 C   0  0  0  0  0  0  0  0  0  0  0  0
  -47.3950   -3.1790  -25.4750 C   0  0  0  0  0  0  0  0  0  0  0  0
  -45.9030   -2.9430  -25.2870 C   0  0  0  0  0  0  0  0  0  0  0  0
  -44.1270   -5.3850  -25.2140 C   0  0  0  0  0  0  0  0  0  0  0  0
  -42.8910   -5.2630  -25.8230 C   0  0  0  0  0  0  0  0  0  0  0  0
  -42.5230   -6.0480  -26.9170 C   0  0  0  0  0  0  0  0  0  0  0  0
  -43.4330   -6.9600  -27.3550 C   0  0  0  0  0  0  0  0  0  0  0  0
  -43.3200   -7.8260  -28.4220 O   0  0  0  0  0  0  0  0  0  0  0  0
  -44.6180   -8.4080  -28.5620 C   0  0  0  0  0  0  0  0  0  0  0  0
  -45.3880   -8.0680  -27.4060 O   0  0  0  0  0  0  0  0  0  0  0  0
  -44.6700   -7.0900  -26.7590 C   0  0  0  0  0  0  0  0  0  0  0  0
  -45.0440   -6.3450  -25.6760 C   0  0  0  0  0  0  0  0  0  0  0  0
  1  2  2  0
  2  3  1  0
  3  4  1  0
  4  5  1  0
  5  6  1  0
  6  7  1  0
  7  8  1  0
  8  9  1  0
  2 10  1  0
 10 11  2  0
 11 12  1  0
 12 13  2  0
 13 14  1  0
 14 15  1  0
 15 16  1  0
 16 17  1  0
 17 18  2  0
  3  9  1  0
 10 18  1  0
 13 17  1  0
M  END
$$$$
