TRIM21-x0678_B_302_1_TRIM21-x0176+B+302+1__LIG
     RDKit          3D

 15 16  0  0  0  0  0  0  0  0999 V2000
  -26.0450  -25.8170  -20.9290 F   0  0  0  0  0  0  0  0  0  0  0  0
  -25.0980  -26.4970  -20.3360 C   0  0  0  0  0  0  0  0  0  0  0  0
  -25.5440  -26.7060  -19.1110 F   0  0  0  0  0  0  0  0  0  0  0  0
  -24.8910  -27.7230  -21.0110 O   0  0  0  0  0  0  0  0  0  0  0  0
  -26.0700  -28.3630  -21.4690 C   0  0  0  0  0  0  0  0  0  0  0  0
  -26.3150  -28.0960  -22.9310 C   0  0  0  0  0  0  0  0  0  0  0  0
  -25.6990  -27.2210  -23.5340 O   0  0  0  0  0  0  0  0  0  0  0  0
  -27.2250  -28.8600  -23.5620 N   0  0  0  0  0  0  0  0  0  0  0  0
  -27.6420  -28.7380  -24.9660 C   0  0  0  0  0  0  0  0  0  0  0  0
  -29.1060  -29.1800  -24.9380 C   0  0  1  0  0  0  0  0  0  0  0  0
  -29.5000  -30.1610  -26.0540 C   0  0  0  0  0  0  0  0  0  0  0  0
  -29.2960  -31.5270  -25.4460 C   0  0  0  0  0  0  0  0  0  0  0  0
  -29.7870  -31.3730  -24.0330 C   0  0  0  0  0  0  0  0  0  0  0  0
  -29.3000  -29.9740  -23.6130 C   0  0  1  0  0  0  0  0  0  0  0  0
  -27.9350  -29.9830  -22.9350 C   0  0  0  0  0  0  0  0  0  0  0  0
  1  2  1  0
  2  3  1  0
  2  4  1  0
  4  5  1  0
  5  6  1  0
  6  7  2  0
  6  8  1  0
  8  9  1  0
 10  9  1  6
 10 11  1  0
 11 12  1  0
 12 13  1  0
 14 13  1  6
 14 15  1  0
  8 15  1  0
 10 14  1  0
M  END
$$$$
