TRIM21-x0199_B_302_1_TRIM21-x0176+B+302+1__LIG
     RDKit          3D

 13 14  0  0  0  0  0  0  0  0999 V2000
  -25.7790  -27.1040  -23.9320 O   0  0  0  0  0  0  0  0  0  0  0  0
  -26.3420  -27.8190  -23.1070 C   0  0  0  0  0  0  0  0  0  0  0  0
  -26.2460  -27.6080  -21.7730 N   0  0  0  0  0  0  0  0  0  0  0  0
  -25.9550  -26.2320  -21.3650 C   0  0  0  0  0  0  0  0  0  0  0  0
  -25.0410  -26.1790  -20.1800 C   0  0  0  0  0  0  0  0  0  0  0  0
  -25.5370  -26.9660  -19.1140 O   0  0  0  0  0  0  0  0  0  0  0  0
  -25.5380  -28.3280  -19.5160 C   0  0  0  0  0  0  0  0  0  0  0  0
  -26.4580  -28.5810  -20.6900 C   0  0  0  0  0  0  0  0  0  0  0  0
  -27.3010  -28.8350  -23.5890 C   0  0  0  0  0  0  0  0  0  0  0  0
  -27.6780  -28.9430  -24.8920 C   0  0  0  0  0  0  0  0  0  0  0  0
  -29.1860  -29.8030  -24.9330 S   0  0  0  0  0  0  0  0  0  0  0  0
  -29.1550  -29.8500  -23.2450 N   0  0  0  0  0  0  0  0  0  0  0  0
  -27.9630  -29.7430  -22.8110 N   0  0  0  0  0  0  0  0  0  0  0  0
  1  2  2  0
  2  3  1  0
  3  4  1  0
  4  5  1  0
  5  6  1  0
  6  7  1  0
  7  8  1  0
  2  9  1  0
  9 10  2  0
 10 11  1  0
 11 12  1  0
 12 13  2  0
  3  8  1  0
  9 13  1  0
M  END
$$$$
