TRIM21-x0379_B_302_1_TRIM21-x0043+B+302+1__LIG
     RDKit          3D

 14 15  0  0  0  0  0  0  0  0999 V2000
  -37.8650  -11.8000  -17.8510 C   0  0  0  0  0  0  0  0  0  0  0  0
  -38.6350  -12.8020  -18.6560 C   0  0  0  0  0  0  0  0  0  0  0  0
  -39.8590  -13.3280  -18.2680 C   0  0  0  0  0  0  0  0  0  0  0  0
  -40.4850  -14.2550  -19.1260 C   0  0  0  0  0  0  0  0  0  0  0  0
  -39.8930  -14.6130  -20.2790 N   0  0  0  0  0  0  0  0  0  0  0  0
  -38.7210  -14.0460  -20.5830 C   0  0  0  0  0  0  0  0  0  0  0  0
  -38.0680  -14.4340  -21.8660 C   0  0  0  0  0  0  0  0  0  0  0  0
  -38.0880  -13.1670  -19.8180 N   0  0  0  0  0  0  0  0  0  0  0  0
  -41.6920  -14.8720  -18.8280 N   0  0  0  0  0  0  0  0  0  0  0  0
  -42.6340  -15.2130  -19.8970 C   0  0  0  0  0  0  0  0  0  0  0  0
  -43.4830  -16.4000  -19.4960 C   0  0  0  0  0  0  0  0  0  0  0  0
  -44.1900  -16.1190  -18.2520 N   0  0  0  0  0  0  0  0  0  0  0  0
  -43.2350  -15.8520  -17.1810 C   0  0  0  0  0  0  0  0  0  0  0  0
  -42.3410  -14.6770  -17.5280 C   0  0  0  0  0  0  0  0  0  0  0  0
  1  2  1  0
  2  3  2  0
  3  4  1  0
  4  5  2  0
  5  6  1  0
  6  7  1  0
  6  8  2  0
  4  9  1  0
  9 10  1  0
 10 11  1  0
 11 12  1  0
 12 13  1  0
 13 14  1  0
  2  8  1  0
  9 14  1  0
M  END
$$$$
