TRIM21-x0594_B_401_1_TRIM21-x0043+B+302+1__LIG
     RDKit          3D

 14 14  0  0  0  0  0  0  0  0999 V2000
  -40.5550  -17.2190  -15.9830 C   0  0  0  0  0  0  0  0  0  0  0  0
  -39.7170  -16.2450  -16.6930 C   0  0  0  0  0  0  0  0  0  0  0  0
  -38.9380  -15.4330  -17.2150 C   0  0  0  0  0  0  0  0  0  0  0  0
  -38.0160  -14.4810  -17.8390 C   0  0  0  0  0  0  0  0  0  0  0  0
  -37.9580  -14.6200  -19.2930 N   0  0  0  0  0  0  0  0  0  0  0  0
  -37.4500  -15.9310  -19.7060 C   0  0  0  0  0  0  0  0  0  0  0  0
  -39.1880  -14.2160  -20.0160 C   0  0  0  0  0  0  0  0  0  0  0  0
  -38.9290  -14.1300  -21.5120 C   0  0  0  0  0  0  0  0  0  0  0  0
  -40.2110  -13.9460  -22.3100 C   0  0  0  0  0  0  0  0  0  0  0  0
  -40.9660  -12.4040  -21.8750 S   0  0  0  0  0  0  0  0  0  0  0  0
  -42.2730  -12.3160  -22.4620 O   0  0  0  0  0  0  0  0  0  0  0  0
  -40.0330  -11.3370  -22.1120 O   0  0  0  0  0  0  0  0  0  0  0  0
  -41.1550  -12.6170  -20.1370 C   0  0  0  0  0  0  0  0  0  0  0  0
  -39.8180  -12.9300  -19.4860 C   0  0  0  0  0  0  0  0  0  0  0  0
  1  2  1  0
  2  3  3  0
  3  4  1  0
  4  5  1  0
  5  6  1  0
  5  7  1  0
  7  8  1  0
  8  9  1  0
  9 10  1  0
 10 11  2  0
 10 12  2  0
 10 13  1  0
 13 14  1  0
  7 14  1  0
M  END
$$$$
