TRIM21-x0731_B_401_1_TRIM21-x0031+B+401+1__LIG
     RDKit          3D

 15 15  0  0  0  0  0  0  0  0999 V2000
  -46.3390   -5.9580  -24.9680 C   0  0  0  0  0  0  0  0  0  0  0  0
  -45.6690   -4.6930  -25.2620 N   0  0  0  0  0  0  0  0  0  0  0  0
  -46.1910   -4.0740  -26.4950 C   0  0  0  0  0  0  0  0  0  0  0  0
  -45.9380   -4.9030  -27.7530 C   0  0  0  0  0  0  0  0  0  0  0  0
  -46.9000   -5.3930  -28.3480 O   0  0  0  0  0  0  0  0  0  0  0  0
  -44.6780   -5.1360  -28.1630 N   0  0  0  0  0  0  0  0  0  0  0  0
  -43.4840   -4.6630  -27.4750 C   0  0  0  0  0  0  0  0  0  0  0  0
  -42.6870   -5.8320  -26.9230 C   0  0  0  0  0  0  0  0  0  0  0  0
  -42.3260   -6.8330  -28.0030 C   0  0  0  0  0  0  0  0  0  0  0  0
  -43.5660   -7.2150  -28.7890 C   0  0  0  0  0  0  0  0  0  0  0  0
  -44.3020   -5.9820  -29.2900 C   0  0  0  0  0  0  0  0  0  0  0  0
  -45.2560   -3.7420  -24.0010 S   0  0  0  0  0  0  0  0  0  0  0  0
  -44.5160   -4.5420  -23.0720 O   0  0  0  0  0  0  0  0  0  0  0  0
  -44.5900   -2.6140  -24.5680 O   0  0  0  0  0  0  0  0  0  0  0  0
  -46.7360   -3.1600  -23.2380 C   0  0  0  0  0  0  0  0  0  0  0  0
  1  2  1  0
  2  3  1  0
  3  4  1  0
  4  5  2  0
  4  6  1  0
  6  7  1  0
  7  8  1  0
  8  9  1  0
  9 10  1  0
 10 11  1  0
  2 12  1  0
 12 13  2  0
 12 14  2  0
 12 15  1  0
  6 11  1  0
M  END
$$$$
