TRIM21-x0733_B_302_1_TRIM21-x0031+B+401+1__LIG
     RDKit          3D

 14 14  0  0  0  0  0  0  0  0999 V2000
  -42.2900   -6.7760  -28.4040 C   0  0  0  0  0  0  0  0  0  0  0  0
  -43.3890   -6.3450  -29.3680 C   0  0  1  0  0  0  0  0  0  0  0  0
  -43.4110   -7.2640  -30.5230 N   0  0  0  0  0  0  0  0  0  0  0  0
  -43.7570   -6.7570  -32.0230 S   0  0  0  0  0  0  0  0  0  0  0  0
  -43.1400   -7.6560  -32.9610 O   0  0  0  0  0  0  0  0  0  0  0  0
  -43.4080   -5.3710  -32.0780 O   0  0  0  0  0  0  0  0  0  0  0  0
  -45.4990   -6.8900  -32.2170 C   0  0  0  0  0  0  0  0  0  0  0  0
  -44.7290   -6.3120  -28.6890 C   0  0  0  0  0  0  0  0  0  0  0  0
  -45.4420   -5.2520  -28.2070 C   0  0  0  0  0  0  0  0  0  0  0  0
  -46.5990   -5.6520  -27.6800 N   0  0  0  0  0  0  0  0  0  0  0  0
  -46.6210   -7.0030  -27.8210 N   0  0  0  0  0  0  0  0  0  0  0  0
  -47.7460   -7.7850  -27.3340 C   0  0  0  0  0  0  0  0  0  0  0  0
  -45.4940   -7.4380  -28.4340 C   0  0  0  0  0  0  0  0  0  0  0  0
  -45.2420   -8.8770  -28.7340 C   0  0  0  0  0  0  0  0  0  0  0  0
  2  1  1  1
  2  3  1  0
  3  4  1  0
  4  5  2  0
  4  6  2  0
  4  7  1  0
  2  8  1  0
  8  9  1  0
  9 10  2  0
 10 11  1  0
 11 12  1  0
 11 13  1  0
 13 14  1  0
  8 13  2  0
M  END
$$$$
