TRIM21-x0176_B_302_1_TRIM21-x0176+B+302+1__LIG
     RDKit          3D

 18 20  0  0  0  0  0  0  0  0999 V2000
  -30.3070  -32.0760  -24.0470 O   0  0  0  0  0  0  0  0  0  0  0  0
  -30.0060  -31.2330  -24.8900 C   0  0  0  0  0  0  0  0  0  0  0  0
  -30.3530  -31.4630  -26.3080 C   0  0  0  0  0  0  0  0  0  0  0  0
  -31.7840  -31.6730  -26.6670 C   0  0  0  0  0  0  0  0  0  0  0  0
  -30.8520  -32.8100  -26.7080 C   0  0  0  0  0  0  0  0  0  0  0  0
  -29.3850  -30.0920  -24.4960 N   0  0  0  0  0  0  0  0  0  0  0  0
  -29.2230  -29.7720  -23.0810 C   0  0  0  0  0  0  0  0  0  0  0  0
  -27.7490  -29.6710  -22.7460 C   0  0  0  0  0  0  0  0  0  0  0  0
  -27.0980  -28.6500  -23.5810 N   0  0  0  0  0  0  0  0  0  0  0  0
  -27.3350  -28.8280  -25.0220 C   0  0  0  0  0  0  0  0  0  0  0  0
  -28.7980  -29.0570  -25.3490 C   0  0  0  0  0  0  0  0  0  0  0  0
  -26.3310  -27.6340  -23.1230 C   0  0  0  0  0  0  0  0  0  0  0  0
  -25.7500  -26.9110  -23.9320 O   0  0  0  0  0  0  0  0  0  0  0  0
  -26.1960  -27.2870  -21.7020 C   0  0  0  0  0  0  0  0  0  0  0  0
  -25.2310  -26.6360  -21.0100 C   0  0  0  0  0  0  0  0  0  0  0  0
  -25.6270  -26.5940  -19.6560 C   0  0  0  0  0  0  0  0  0  0  0  0
  -26.8480  -27.2040  -19.6000 C   0  0  0  0  0  0  0  0  0  0  0  0
  -27.2010  -27.6440  -20.8430 O   0  0  0  0  0  0  0  0  0  0  0  0
  1  2  2  0
  2  3  1  0
  3  4  1  0
  4  5  1  0
  2  6  1  0
  6  7  1  0
  7  8  1  0
  8  9  1  0
  9 10  1  0
 10 11  1  0
  9 12  1  0
 12 13  2  0
 12 14  1  0
 14 15  2  0
 15 16  1  0
 16 17  2  0
 17 18  1  0
  3  5  1  0
  6 11  1  0
 14 18  1  0
M  END
$$$$
