TRIM21-x0358_B_302_1_TRIM21-x0043+B+302+1__LIG
     RDKit          3D

 15 16  0  0  0  0  0  0  0  0999 V2000
  -38.8620  -15.3780  -23.2220 C   0  0  0  0  0  0  0  0  0  0  0  0
  -40.0830  -15.4830  -22.4250 N   0  0  0  0  0  0  0  0  0  0  0  0
  -40.8880  -16.6890  -22.6500 C   0  0  0  0  0  0  0  0  0  0  0  0
  -42.1750  -16.6660  -21.8880 C   0  0  0  0  0  0  0  0  0  0  0  0
  -41.9780  -16.1780  -20.4710 C   0  0  0  0  0  0  0  0  0  0  0  0
  -41.3810  -14.8000  -20.5050 C   0  0  0  0  0  0  0  0  0  0  0  0
  -41.7390  -13.8000  -19.6040 C   0  0  0  0  0  0  0  0  0  0  0  0
  -41.1740  -12.5360  -19.6700 C   0  0  0  0  0  0  0  0  0  0  0  0
  -40.2190  -12.2470  -20.6550 C   0  0  0  0  0  0  0  0  0  0  0  0
  -39.8670  -13.2230  -21.5760 C   0  0  0  0  0  0  0  0  0  0  0  0
  -40.4310  -14.5050  -21.5130 C   0  0  0  0  0  0  0  0  0  0  0  0
  -39.4850  -10.6360  -20.7760 S   0  0  0  0  0  0  0  0  0  0  0  0
  -39.3560  -10.3800  -22.1820 O   0  0  0  0  0  0  0  0  0  0  0  0
  -40.2900   -9.7310  -20.0030 O   0  0  0  0  0  0  0  0  0  0  0  0
  -38.0170  -10.6500  -20.1280 N   0  0  0  0  0  0  0  0  0  0  0  0
  1  2  1  0
  2  3  1  0
  3  4  1  0
  4  5  1  0
  5  6  1  0
  6  7  2  0
  7  8  1  0
  8  9  2  0
  9 10  1  0
 10 11  2  0
  9 12  1  0
 12 13  2  0
 12 14  2  0
 12 15  1  0
  2 11  1  0
  6 11  1  0
M  END
$$$$
