TRIM21-x0664_B_302_1_TRIM21-x0043+B+302+1__LIG
     RDKit          3D

 17 18  0  0  0  0  0  0  0  0999 V2000
  -44.3930  -18.3270  -15.8750 C   0  0  0  0  0  0  0  0  0  0  0  0
  -42.9710  -17.8750  -15.9980 C   0  0  0  0  0  0  0  0  0  0  0  0
  -42.0610  -18.4210  -15.3610 O   0  0  0  0  0  0  0  0  0  0  0  0
  -42.7860  -16.8120  -16.8190 N   0  0  0  0  0  0  0  0  0  0  0  0
  -41.5730  -16.3180  -17.3650 C   0  0  0  0  0  0  0  0  0  0  0  0
  -40.4110  -16.2610  -16.6060 C   0  0  0  0  0  0  0  0  0  0  0  0
  -39.2350  -15.7880  -17.1640 C   0  0  0  0  0  0  0  0  0  0  0  0
  -39.1920  -15.3840  -18.4800 C   0  0  0  0  0  0  0  0  0  0  0  0
  -37.9080  -14.8700  -19.0760 C   0  0  0  0  0  0  0  0  0  0  0  0
  -37.7260  -13.4110  -19.0470 N   0  0  0  0  0  0  0  0  0  0  0  0
  -38.5600  -12.6870  -20.0020 C   0  0  0  0  0  0  0  0  0  0  0  0
  -38.2500  -11.2120  -19.9700 C   0  0  0  0  0  0  0  0  0  0  0  0
  -38.4230  -10.6720  -18.6660 O   0  0  0  0  0  0  0  0  0  0  0  0
  -37.6160  -11.3910  -17.7320 C   0  0  0  0  0  0  0  0  0  0  0  0
  -37.9260  -12.8590  -17.7160 C   0  0  0  0  0  0  0  0  0  0  0  0
  -40.3490  -15.4640  -19.2370 C   0  0  0  0  0  0  0  0  0  0  0  0
  -41.5280  -15.9570  -18.7030 C   0  0  0  0  0  0  0  0  0  0  0  0
  1  2  1  0
  2  3  2  0
  2  4  1  0
  4  5  1  0
  5  6  2  0
  6  7  1  0
  7  8  2  0
  8  9  1  0
  9 10  1  0
 10 11  1  0
 11 12  1  0
 12 13  1  0
 13 14  1  0
 14 15  1  0
  8 16  1  0
 16 17  2  0
  5 17  1  0
 10 15  1  0
M  END
$$$$
