TRIM21-x0215_B_302_1_TRIM21-x0215+B+302+1__LIG
     RDKit          3D

 15 16  0  0  0  0  0  0  0  0999 V2000
  -19.5110  -17.6570  -38.7420 O   0  0  0  0  0  0  0  0  0  0  0  0
  -19.1490  -17.3440  -39.8770 C   0  0  0  0  0  0  0  0  0  0  0  0
  -17.6860  -17.2850  -40.2610 C   0  0  0  0  0  0  0  0  0  0  0  0
  -16.8170  -17.9020  -39.2960 N   0  0  0  0  0  0  0  0  0  0  0  0
  -16.8970  -19.3180  -38.9610 C   0  0  0  0  0  0  0  0  0  0  0  0
  -15.6580  -19.5560  -38.1070 C   0  0  0  0  0  0  0  0  0  0  0  0
  -15.1610  -18.1820  -37.7120 C   0  0  0  0  0  0  0  0  0  0  0  0
  -15.8920  -17.2240  -38.6110 C   0  0  0  0  0  0  0  0  0  0  0  0
  -15.7070  -16.0150  -38.7040 O   0  0  0  0  0  0  0  0  0  0  0  0
  -20.0080  -17.0510  -40.9030 N   0  0  0  0  0  0  0  0  0  0  0  0
  -21.3870  -17.0830  -40.8300 C   0  0  0  0  0  0  0  0  0  0  0  0
  -22.1090  -16.6330  -41.8250 N   0  0  0  0  0  0  0  0  0  0  0  0
  -23.4440  -16.6500  -41.4800 C   0  0  0  0  0  0  0  0  0  0  0  0
  -23.7390  -17.3260  -40.3600 C   0  0  0  0  0  0  0  0  0  0  0  0
  -22.2970  -17.6750  -39.4830 S   0  0  0  0  0  0  0  0  0  0  0  0
  1  2  2  0
  2  3  1  0
  3  4  1  0
  4  5  1  0
  5  6  1  0
  6  7  1  0
  7  8  1  0
  8  9  2  0
  2 10  1  0
 10 11  1  0
 11 12  2  0
 12 13  1  0
 13 14  2  0
 14 15  1  0
  4  8  1  0
 11 15  1  0
M  END
$$$$
