TRIM21-x0631_B_201_1_TRIM21-x0031+B+401+1__LIG
     RDKit          3D

 14 15  0  0  0  0  0  0  0  0999 V2000
  -43.9800   -4.1370  -22.9510 O   0  0  0  0  0  0  0  0  0  0  0  0
  -45.1630   -3.3760  -23.2750 S   0  0  0  0  0  0  0  0  0  0  0  0
  -45.6160   -2.4470  -22.2800 O   0  0  0  0  0  0  0  0  0  0  0  0
  -44.9350   -2.5150  -24.8120 C   0  0  0  0  0  0  0  0  0  0  0  0
  -44.7450   -3.5100  -25.9260 C   0  0  0  0  0  0  0  0  0  0  0  0
  -45.9370   -4.3390  -26.1040 N   0  0  0  0  0  0  0  0  0  0  0  0
  -45.9210   -5.0130  -27.4120 C   0  0  0  0  0  0  0  0  0  0  0  0
  -44.6860   -5.7710  -27.7520 C   0  0  0  0  0  0  0  0  0  0  0  0
  -43.5250   -5.4260  -28.3380 C   0  0  0  0  0  0  0  0  0  0  0  0
  -42.6980   -6.5870  -28.3690 C   0  0  0  0  0  0  0  0  0  0  0  0
  -43.4270   -7.5850  -27.7880 C   0  0  0  0  0  0  0  0  0  0  0  0
  -44.6580   -7.0930  -27.4180 O   0  0  0  0  0  0  0  0  0  0  0  0
  -46.0610   -5.2720  -24.9720 C   0  0  0  0  0  0  0  0  0  0  0  0
  -46.4380   -4.5270  -23.6970 C   0  0  0  0  0  0  0  0  0  0  0  0
  1  2  2  0
  2  3  2  0
  2  4  1  0
  4  5  1  0
  5  6  1  0
  6  7  1  0
  7  8  1  0
  8  9  2  0
  9 10  1  0
 10 11  2  0
 11 12  1  0
  6 13  1  0
 13 14  1  0
  2 14  1  0
  8 12  1  0
M  END
$$$$
