TRIM21-x0043_B_302_1_TRIM21-x0043+B+302+1__LIG
     RDKit          3D

 15 17  0  0  0  0  0  0  0  0999 V2000
  -37.6860  -10.6930  -19.3010 C   0  0  0  0  0  0  0  0  0  0  0  0
  -37.4150  -11.6950  -18.2040 C   0  0  0  0  0  0  0  0  0  0  0  0
  -38.3090  -12.8600  -18.5720 C   0  0  1  0  0  0  0  0  0  0  0  0
  -37.4970  -13.7200  -19.5700 C   0  0  0  0  0  0  0  0  0  0  0  0
  -38.2550  -15.0290  -19.7240 C   0  0  0  0  0  0  0  0  0  0  0  0
  -38.7890  -15.1900  -18.3810 N   0  0  0  0  0  0  0  0  0  0  0  0
  -38.4710  -14.0160  -17.5800 C   0  0  0  0  0  0  0  0  0  0  0  0
  -39.3850  -16.3110  -17.8930 C   0  0  0  0  0  0  0  0  0  0  0  0
  -39.8650  -16.3810  -16.5730 C   0  0  0  0  0  0  0  0  0  0  0  0
  -40.4320  -17.4970  -16.0930 N   0  0  0  0  0  0  0  0  0  0  0  0
  -40.5390  -18.5310  -16.9340 C   0  0  0  0  0  0  0  0  0  0  0  0
  -40.1050  -18.4620  -18.2360 C   0  0  0  0  0  0  0  0  0  0  0  0
  -39.5090  -17.3670  -18.7220 N   0  0  0  0  0  0  0  0  0  0  0  0
  -39.3550  -12.2880  -19.5220 C   0  0  0  0  0  0  0  0  0  0  0  0
  -39.0320  -10.8940  -19.7100 O   0  0  0  0  0  0  0  0  0  0  0  0
  1  2  1  0
  3  2  1  1
  3  4  1  0
  4  5  1  0
  5  6  1  0
  6  7  1  0
  6  8  1  0
  8  9  2  0
  9 10  1  0
 10 11  2  0
 11 12  1  0
 12 13  2  0
  3 14  1  0
 14 15  1  0
  1 15  1  0
  3  7  1  0
  8 13  1  0
M  END
$$$$
