TRIM21-x0597_B_302_1_TRIM21-x0031+B+401+1__LIG
     RDKit          3D

 15 16  0  0  0  0  0  0  0  0999 V2000
  -46.1750  -10.1920  -29.1540 C   0  0  0  0  0  0  0  0  0  0  0  0
  -45.0770   -9.3500  -28.7920 O   0  0  0  0  0  0  0  0  0  0  0  0
  -45.1290   -8.0340  -29.3320 C   0  0  1  0  0  0  0  0  0  0  0  0
  -45.9350   -7.2370  -28.3190 C   0  0  0  0  0  0  0  0  0  0  0  0
  -46.1110   -5.8810  -28.8390 N   0  0  0  0  0  0  0  0  0  0  0  0
  -47.1260   -5.1060  -28.1020 C   0  0  0  0  0  0  0  0  0  0  0  0
  -46.8390   -4.8370  -26.6590 C   0  0  0  0  0  0  0  0  0  0  0  0
  -46.1430   -3.8310  -26.1060 C   0  0  0  0  0  0  0  0  0  0  0  0
  -46.4000   -3.5750  -24.7720 N   0  0  0  0  0  0  0  0  0  0  0  0
  -46.9610   -4.6420  -24.2650 C   0  0  0  0  0  0  0  0  0  0  0  0
  -47.4730   -5.8220  -25.3940 S   0  0  0  0  0  0  0  0  0  0  0  0
  -44.8020   -5.2260  -28.9020 C   0  0  0  0  0  0  0  0  0  0  0  0
  -43.8890   -5.9380  -29.8860 C   0  0  0  0  0  0  0  0  0  0  0  0
  -43.7410   -7.4190  -29.5600 C   0  0  1  0  0  0  0  0  0  0  0  0
  -42.8000   -7.6260  -28.3720 C   0  0  0  0  0  0  0  0  0  0  0  0
  1  2  1  0
  3  2  1  1
  3  4  1  0
  4  5  1  0
  5  6  1  0
  6  7  1  0
  7  8  2  0
  8  9  1  0
  9 10  2  0
 10 11  1  0
  5 12  1  0
 12 13  1  0
 13 14  1  0
 14 15  1  1
  3 14  1  0
  7 11  1  0
M  END
$$$$
