TRIM21-x0579_B_302_1_TRIM21-x0176+B+302+1__LIG
     RDKit          3D

 16 17  0  0  0  0  0  0  0  0999 V2000
  -30.9660  -31.6910  -24.4600 N   0  0  0  0  0  0  0  0  0  0  0  0
  -30.1170  -31.0380  -25.2510 C   0  0  0  0  0  0  0  0  0  0  0  0
  -29.8870  -31.4300  -26.3990 O   0  0  0  0  0  0  0  0  0  0  0  0
  -29.5050  -29.9100  -24.7290 N   0  0  0  0  0  0  0  0  0  0  0  0
  -28.7730  -28.9280  -25.5270 C   0  0  0  0  0  0  0  0  0  0  0  0
  -27.3350  -28.7830  -25.0720 C   0  0  0  0  0  0  0  0  0  0  0  0
  -27.2150  -28.5910  -23.6190 N   0  0  0  0  0  0  0  0  0  0  0  0
  -28.0330  -29.5210  -22.8240 C   0  0  0  0  0  0  0  0  0  0  0  0
  -29.4640  -29.5460  -23.3170 C   0  0  0  0  0  0  0  0  0  0  0  0
  -26.3830  -27.6520  -23.1110 C   0  0  0  0  0  0  0  0  0  0  0  0
  -25.6980  -26.9850  -23.8820 O   0  0  0  0  0  0  0  0  0  0  0  0
  -26.2560  -27.3270  -21.6900 C   0  0  0  0  0  0  0  0  0  0  0  0
  -25.3450  -26.5860  -21.0160 C   0  0  0  0  0  0  0  0  0  0  0  0
  -25.7060  -26.6050  -19.6550 C   0  0  0  0  0  0  0  0  0  0  0  0
  -26.8620  -27.3370  -19.5790 C   0  0  0  0  0  0  0  0  0  0  0  0
  -27.2020  -27.7950  -20.8180 O   0  0  0  0  0  0  0  0  0  0  0  0
  1  2  1  0
  2  3  2  0
  2  4  1  0
  4  5  1  0
  5  6  1  0
  6  7  1  0
  7  8  1  0
  8  9  1  0
  7 10  1  0
 10 11  2  0
 10 12  1  0
 12 13  2  0
 13 14  1  0
 14 15  2  0
 15 16  1  0
  4  9  1  0
 12 16  1  0
M  END
$$$$
