TRIM21-x0728_B_302_1_TRIM21-x0043+B+302+1__LIG
     RDKit          3D

  9  9  0  0  0  0  0  0  0  0999 V2000
  -40.6300  -17.0540  -15.6910 C   0  0  0  0  0  0  0  0  0  0  0  0
  -40.0550  -17.2610  -17.0060 N   0  0  0  0  0  0  0  0  0  0  0  0
  -40.3850  -18.5020  -17.6800 C   0  0  0  0  0  0  0  0  0  0  0  0
  -39.2180  -16.3460  -17.5680 C   0  0  0  0  0  0  0  0  0  0  0  0
  -38.3730  -16.6750  -18.6450 C   0  0  0  0  0  0  0  0  0  0  0  0
  -37.5380  -15.7290  -19.1710 C   0  0  0  0  0  0  0  0  0  0  0  0
  -37.4530  -14.4710  -18.7320 N   0  0  0  0  0  0  0  0  0  0  0  0
  -38.2390  -14.1460  -17.7060 C   0  0  0  0  0  0  0  0  0  0  0  0
  -39.1100  -15.0180  -17.1020 C   0  0  0  0  0  0  0  0  0  0  0  0
  1  2  1  0
  2  3  1  0
  2  4  1  0
  4  5  2  0
  5  6  1  0
  6  7  2  0
  7  8  1  0
  8  9  2  0
  4  9  1  0
M  END
$$$$
